MODEL 1
REMARK VINA RESULT:      -6.6      0.000      0.000
REMARK  9 active torsions:
REMARK  status: ('A' for Active; 'I' for Inactive)
REMARK    1  A    between atoms: C01_2  and  C02_3 
REMARK    2  A    between atoms: C03_4  and  C04_5 
REMARK    3  A    between atoms: C04_5  and  C05_6 
REMARK    4  A    between atoms: C09_10  and  C0A_11 
REMARK    5  A    between atoms: C0A_11  and  C0B_12 
REMARK       I    between atoms: C0B_12  and  N0C_13 
REMARK    6  A    between atoms: C0E_15  and  C0F_16 
REMARK    7  A    between atoms: C0F_16  and  C0G_17 
REMARK    8  A    between atoms: C0N_23  and  C0O_24 
REMARK    9  A    between atoms: C0O_24  and  N0P_25 
ROOT
ATOM      1  C02 MOL     1       1.778   6.934  -6.273  1.00  0.00    -0.044 C 
ATOM      2  C03 MOL     1       0.983   5.977  -5.628  1.00  0.00     0.129 C 
ATOM      3  C08 MOL     1      -0.096   6.337  -4.725  1.00  0.00    -0.316 C 
ATOM      4  C09 MOL     1      -0.434   7.672  -4.613  1.00  0.00     0.109 C 
ATOM      5  C0E MOL     1       0.338   8.658  -5.156  1.00  0.00    -0.064 C 
ATOM      6  C0N MOL     1       1.367   8.300  -6.060  1.00  0.00    -0.120 C 
ENDROOT
BRANCH   5   7
ATOM      7  C0F MOL     1      -0.030  10.110  -4.893  1.00  0.00     0.047 C 
BRANCH   7   8
ATOM      8  C0G MOL     1       0.439  10.781  -3.630  1.00  0.00     0.171 C 
ATOM      9  C0M MOL     1       1.811  10.939  -3.347  1.00  0.00    -0.195 C 
ATOM     10  C0K MOL     1       2.241  11.558  -2.144  1.00  0.00    -0.062 C 
ATOM     11  C0J MOL     1       1.346  11.872  -1.118  1.00  0.00    -0.135 C 
ATOM     12  C0I MOL     1      -0.034  11.667  -1.421  1.00  0.00    -0.071 C 
ATOM     13  C0H MOL     1      -0.417  11.186  -2.655  1.00  0.00    -0.152 C 
ENDBRANCH   7   8
ENDBRANCH   5   7
BRANCH   6  14
ATOM     14  C0O MOL     1       2.230   9.392  -6.772  1.00  0.00     0.092 C 
BRANCH  14  15
ATOM     15  N0P MOL     1       1.685   9.948  -8.052  1.00  0.00    -0.153 N 
ATOM     16  H0Q MOL     1       2.379   9.903  -8.781  1.00  0.00     0.257 HD
ATOM     17  H0R MOL     1       0.959   9.316  -8.375  1.00  0.00     0.244 HD
ATOM     18  H0S MOL     1       1.367  10.906  -8.002  1.00  0.00     0.246 HD
ENDBRANCH  14  15
ENDBRANCH   6  14
BRANCH   4  19
ATOM     19  C0A MOL     1      -1.766   7.970  -3.886  1.00  0.00    -0.219 C 
BRANCH  19  20
ATOM     20  C0B MOL     1      -2.924   8.480  -4.804  1.00  0.00     0.819 C 
ATOM     21  N0C MOL     1      -3.230   7.750  -5.833  1.00  0.00    -0.993 N 
ATOM     22  H13 MOL     1      -2.718   6.876  -5.927  1.00  0.00     0.395 HD
ATOM     23  H14 MOL     1      -3.906   8.069  -6.502  1.00  0.00     0.440 HD
ATOM     24  O0D MOL     1      -3.560   9.475  -4.507  1.00  0.00    -0.614 OA
ENDBRANCH  19  20
ENDBRANCH   4  19
BRANCH   1  25
ATOM     25  C01 MOL     1       2.962   6.571  -7.195  1.00  0.00    -0.066 C 
ATOM     26  C00 MOL     1       2.483   6.235  -8.689  1.00  0.00    -0.126 C 
ENDBRANCH   1  25
BRANCH   2  27
ATOM     27  C04 MOL     1       1.207   4.483  -5.688  1.00  0.00    -0.266 C 
BRANCH  27  28
ATOM     28  C05 MOL     1       0.029   3.674  -6.170  1.00  0.00     0.870 C 
ATOM     29  O06 MOL     1      -0.732   3.069  -5.440  1.00  0.00    -0.820 OA
ATOM     30  O07 MOL     1      -0.229   3.692  -7.422  1.00  0.00    -0.676 OA
ENDBRANCH  27  28
ENDBRANCH   2  27
TORSDOF 9
ENDMDL
MODEL 2
REMARK VINA RESULT:      -6.4      3.419      6.731
REMARK  9 active torsions:
REMARK  status: ('A' for Active; 'I' for Inactive)
REMARK    1  A    between atoms: C01_2  and  C02_3 
REMARK    2  A    between atoms: C03_4  and  C04_5 
REMARK    3  A    between atoms: C04_5  and  C05_6 
REMARK    4  A    between atoms: C09_10  and  C0A_11 
REMARK    5  A    between atoms: C0A_11  and  C0B_12 
REMARK       I    between atoms: C0B_12  and  N0C_13 
REMARK    6  A    between atoms: C0E_15  and  C0F_16 
REMARK    7  A    between atoms: C0F_16  and  C0G_17 
REMARK    8  A    between atoms: C0N_23  and  C0O_24 
REMARK    9  A    between atoms: C0O_24  and  N0P_25 
ROOT
ATOM      1  C02 MOL     1       2.142  11.231  -1.706  1.00  0.00    -0.044 C 
ATOM      2  C03 MOL     1       0.845  11.455  -1.222  1.00  0.00     0.129 C 
ATOM      3  C08 MOL     1      -0.334  11.327  -2.060  1.00  0.00    -0.316 C 
ATOM      4  C09 MOL     1      -0.174  10.831  -3.340  1.00  0.00     0.109 C 
ATOM      5  C0E MOL     1       1.060  10.659  -3.896  1.00  0.00    -0.064 C 
ATOM      6  C0N MOL     1       2.202  10.753  -3.066  1.00  0.00    -0.120 C 
ENDROOT
BRANCH   5   7
ATOM      7  C0F MOL     1       1.158  10.222  -5.349  1.00  0.00     0.047 C 
BRANCH   7   8
ATOM      8  C0G MOL     1       1.347  11.255  -6.427  1.00  0.00     0.171 C 
ATOM      9  C0M MOL     1       0.285  12.082  -6.847  1.00  0.00    -0.195 C 
ATOM     10  C0K MOL     1       0.471  13.040  -7.878  1.00  0.00    -0.062 C 
ATOM     11  C0J MOL     1       1.643  13.086  -8.637  1.00  0.00    -0.135 C 
ATOM     12  C0I MOL     1       2.687  12.211  -8.210  1.00  0.00    -0.071 C 
ATOM     13  C0H MOL     1       2.510  11.388  -7.118  1.00  0.00    -0.152 C 
ENDBRANCH   7   8
ENDBRANCH   5   7
BRANCH   6  14
ATOM     14  C0O MOL     1       3.635  10.487  -3.632  1.00  0.00     0.092 C 
BRANCH  14  15
ATOM     15  N0P MOL     1       4.378  11.674  -4.164  1.00  0.00    -0.153 N 
ATOM     16  H0Q MOL     1       4.521  11.587  -5.157  1.00  0.00     0.257 HD
ATOM     17  H0R MOL     1       3.765  12.480  -4.082  1.00  0.00     0.244 HD
ATOM     18  H0S MOL     1       5.284  11.836  -3.745  1.00  0.00     0.246 HD
ENDBRANCH  14  15
ENDBRANCH   6  14
BRANCH   4  19
ATOM     19  C0A MOL     1      -1.475  10.433  -4.075  1.00  0.00    -0.219 C 
BRANCH  19  20
ATOM     20  C0B MOL     1      -1.837   8.913  -4.008  1.00  0.00     0.819 C 
ATOM     21  N0C MOL     1      -1.872   8.263  -5.131  1.00  0.00    -0.993 N 
ATOM     22  H13 MOL     1      -1.613   8.791  -5.961  1.00  0.00     0.395 HD
ATOM     23  H14 MOL     1      -2.179   7.308  -5.157  1.00  0.00     0.440 HD
ATOM     24  O0D MOL     1      -1.990   8.358  -2.935  1.00  0.00    -0.614 OA
ENDBRANCH  19  20
ENDBRANCH   4  19
BRANCH   1  25
ATOM     25  C01 MOL     1       3.411  11.411  -0.845  1.00  0.00    -0.066 C 
ATOM     26  C00 MOL     1       3.715  10.122   0.060  1.00  0.00    -0.126 C 
ENDBRANCH   1  25
BRANCH   2  27
ATOM     27  C04 MOL     1       0.514  11.959   0.164  1.00  0.00    -0.266 C 
BRANCH  27  28
ATOM     28  C05 MOL     1       0.545  13.458   0.329  1.00  0.00     0.870 C 
ATOM     29  O06 MOL     1      -0.367  14.200   0.021  1.00  0.00    -0.820 OA
ATOM     30  O07 MOL     1       1.566  13.968   0.903  1.00  0.00    -0.676 OA
ENDBRANCH  27  28
ENDBRANCH   2  27
TORSDOF 9
ENDMDL
MODEL 3
REMARK VINA RESULT:      -6.0      3.294      6.836
REMARK  9 active torsions:
REMARK  status: ('A' for Active; 'I' for Inactive)
REMARK    1  A    between atoms: C01_2  and  C02_3 
REMARK    2  A    between atoms: C03_4  and  C04_5 
REMARK    3  A    between atoms: C04_5  and  C05_6 
REMARK    4  A    between atoms: C09_10  and  C0A_11 
REMARK    5  A    between atoms: C0A_11  and  C0B_12 
REMARK       I    between atoms: C0B_12  and  N0C_13 
REMARK    6  A    between atoms: C0E_15  and  C0F_16 
REMARK    7  A    between atoms: C0F_16  and  C0G_17 
REMARK    8  A    between atoms: C0N_23  and  C0O_24 
REMARK    9  A    between atoms: C0O_24  and  N0P_25 
ROOT
ATOM      1  C02 MOL     1       0.680  11.064  -2.374  1.00  0.00    -0.044 C 
ATOM      2  C03 MOL     1       2.002  11.216  -2.812  1.00  0.00     0.129 C 
ATOM      3  C08 MOL     1       2.552  10.450  -3.918  1.00  0.00    -0.316 C 
ATOM      4  C09 MOL     1       1.693   9.648  -4.646  1.00  0.00     0.109 C 
ATOM      5  C0E MOL     1       0.416   9.402  -4.234  1.00  0.00    -0.064 C 
ATOM      6  C0N MOL     1      -0.123  10.175  -3.178  1.00  0.00    -0.120 C 
ENDROOT
BRANCH   5   7
ATOM      7  C0F MOL     1      -0.434   8.417  -5.021  1.00  0.00     0.047 C 
BRANCH   7   8
ATOM      8  C0G MOL     1      -0.410   6.956  -4.659  1.00  0.00     0.171 C 
ATOM      9  C0M MOL     1       0.330   6.023  -5.414  1.00  0.00    -0.195 C 
ATOM     10  C0K MOL     1       0.331   4.646  -5.074  1.00  0.00    -0.062 C 
ATOM     11  C0J MOL     1      -0.529   4.128  -4.102  1.00  0.00    -0.135 C 
ATOM     12  C0I MOL     1      -1.292   5.093  -3.379  1.00  0.00    -0.071 C 
ATOM     13  C0H MOL     1      -1.164   6.438  -3.653  1.00  0.00    -0.152 C 
ENDBRANCH   7   8
ENDBRANCH   5   7
BRANCH   6  14
ATOM     14  C0O MOL     1      -1.606   9.990  -2.718  1.00  0.00     0.092 C 
BRANCH  14  15
ATOM     15  N0P MOL     1      -2.650  10.714  -3.511  1.00  0.00    -0.153 N 
ATOM     16  H0Q MOL     1      -2.233  11.454  -4.052  1.00  0.00     0.257 HD
ATOM     17  H0R MOL     1      -2.997  10.071  -4.216  1.00  0.00     0.244 HD
ATOM     18  H0S MOL     1      -3.394  11.126  -2.966  1.00  0.00     0.246 HD
ENDBRANCH  14  15
ENDBRANCH   6  14
BRANCH   4  19
ATOM     19  C0A MOL     1       2.253   9.099  -5.978  1.00  0.00    -0.219 C 
BRANCH  19  20
ATOM     20  C0B MOL     1       2.326  10.136  -7.146  1.00  0.00     0.819 C 
ATOM     21  N0C MOL     1       1.228  10.374  -7.796  1.00  0.00    -0.993 N 
ATOM     22  H13 MOL     1       0.396   9.897  -7.456  1.00  0.00     0.395 HD
ATOM     23  H14 MOL     1       1.233  10.966  -8.606  1.00  0.00     0.440 HD
ATOM     24  O0D MOL     1       3.353  10.751  -7.367  1.00  0.00    -0.614 OA
ENDBRANCH  19  20
ENDBRANCH   4  19
BRANCH   1  25
ATOM     25  C01 MOL     1       0.093  11.831  -1.169  1.00  0.00    -0.066 C 
ATOM     26  C00 MOL     1       0.431  11.114   0.226  1.00  0.00    -0.126 C 
ENDBRANCH   1  25
BRANCH   2  27
ATOM     27  C04 MOL     1       3.043  12.084  -2.142  1.00  0.00    -0.266 C 
BRANCH  27  28
ATOM     28  C05 MOL     1       4.112  11.340  -1.384  1.00  0.00     0.870 C 
ATOM     29  O06 MOL     1       3.891  10.531  -0.504  1.00  0.00    -0.820 OA
ATOM     30  O07 MOL     1       5.325  11.515  -1.745  1.00  0.00    -0.676 OA
ENDBRANCH  27  28
ENDBRANCH   2  27
TORSDOF 9
ENDMDL
MODEL 4
REMARK VINA RESULT:      -5.9      2.016      2.557
REMARK  9 active torsions:
REMARK  status: ('A' for Active; 'I' for Inactive)
REMARK    1  A    between atoms: C01_2  and  C02_3 
REMARK    2  A    between atoms: C03_4  and  C04_5 
REMARK    3  A    between atoms: C04_5  and  C05_6 
REMARK    4  A    between atoms: C09_10  and  C0A_11 
REMARK    5  A    between atoms: C0A_11  and  C0B_12 
REMARK       I    between atoms: C0B_12  and  N0C_13 
REMARK    6  A    between atoms: C0E_15  and  C0F_16 
REMARK    7  A    between atoms: C0F_16  and  C0G_17 
REMARK    8  A    between atoms: C0N_23  and  C0O_24 
REMARK    9  A    between atoms: C0O_24  and  N0P_25 
ROOT
ATOM      1  C02 MOL     1       1.806   6.602  -5.526  1.00  0.00    -0.044 C 
ATOM      2  C03 MOL     1       1.125   6.322  -4.333  1.00  0.00     0.129 C 
ATOM      3  C08 MOL     1       0.633   7.365  -3.450  1.00  0.00    -0.316 C 
ATOM      4  C09 MOL     1       0.722   8.677  -3.878  1.00  0.00     0.109 C 
ATOM      5  C0E MOL     1       1.431   9.024  -4.991  1.00  0.00    -0.064 C 
ATOM      6  C0N MOL     1       1.878   8.003  -5.863  1.00  0.00    -0.120 C 
ENDROOT
BRANCH   5   7
ATOM      7  C0F MOL     1       1.583  10.498  -5.336  1.00  0.00     0.047 C 
BRANCH   7   8
ATOM      8  C0G MOL     1       2.790  11.255  -4.853  1.00  0.00     0.171 C 
ATOM      9  C0M MOL     1       3.775  11.719  -5.750  1.00  0.00    -0.195 C 
ATOM     10  C0K MOL     1       4.918  12.417  -5.281  1.00  0.00    -0.062 C 
ATOM     11  C0J MOL     1       5.210  12.519  -3.918  1.00  0.00    -0.135 C 
ATOM     12  C0I MOL     1       4.211  12.009  -3.036  1.00  0.00    -0.071 C 
ATOM     13  C0H MOL     1       3.050  11.455  -3.534  1.00  0.00    -0.152 C 
ENDBRANCH   7   8
ENDBRANCH   5   7
BRANCH   6  14
ATOM     14  C0O MOL     1       2.625   8.348  -7.192  1.00  0.00     0.092 C 
BRANCH  14  15
ATOM     15  N0P MOL     1       1.771   8.596  -8.397  1.00  0.00    -0.153 N 
ATOM     16  H0Q MOL     1       0.945   9.113  -8.145  1.00  0.00     0.257 HD
ATOM     17  H0R MOL     1       2.276   9.238  -9.002  1.00  0.00     0.244 HD
ATOM     18  H0S MOL     1       1.467   7.766  -8.886  1.00  0.00     0.246 HD
ENDBRANCH  14  15
ENDBRANCH   6  14
BRANCH   4  19
ATOM     19  C0A MOL     1      -0.078   9.709  -3.050  1.00  0.00    -0.219 C 
BRANCH  19  20
ATOM     20  C0B MOL     1      -1.626   9.682  -3.272  1.00  0.00     0.819 C 
ATOM     21  N0C MOL     1      -2.048   9.637  -4.498  1.00  0.00    -0.993 N 
ATOM     22  H13 MOL     1      -1.329   9.575  -5.216  1.00  0.00     0.395 HD
ATOM     23  H14 MOL     1      -3.028   9.702  -4.703  1.00  0.00     0.440 HD
ATOM     24  O0D MOL     1      -2.388   9.617  -2.324  1.00  0.00    -0.614 OA
ENDBRANCH  19  20
ENDBRANCH   4  19
BRANCH   1  25
ATOM     25  C01 MOL     1       2.380   5.508  -6.452  1.00  0.00    -0.066 C 
ATOM     26  C00 MOL     1       1.281   4.944  -7.474  1.00  0.00    -0.126 C 
ENDBRANCH   1  25
BRANCH   2  27
ATOM     27  C04 MOL     1       0.917   4.939  -3.759  1.00  0.00    -0.266 C 
BRANCH  27  28
ATOM     28  C05 MOL     1      -0.442   4.335  -4.009  1.00  0.00     0.870 C 
ATOM     29  O06 MOL     1      -1.474   4.742  -3.514  1.00  0.00    -0.820 OA
ATOM     30  O07 MOL     1      -0.519   3.383  -4.858  1.00  0.00    -0.676 OA
ENDBRANCH  27  28
ENDBRANCH   2  27
TORSDOF 9
ENDMDL
MODEL 5
REMARK VINA RESULT:      -5.6      4.524      7.164
REMARK  9 active torsions:
REMARK  status: ('A' for Active; 'I' for Inactive)
REMARK    1  A    between atoms: C01_2  and  C02_3 
REMARK    2  A    between atoms: C03_4  and  C04_5 
REMARK    3  A    between atoms: C04_5  and  C05_6 
REMARK    4  A    between atoms: C09_10  and  C0A_11 
REMARK    5  A    between atoms: C0A_11  and  C0B_12 
REMARK       I    between atoms: C0B_12  and  N0C_13 
REMARK    6  A    between atoms: C0E_15  and  C0F_16 
REMARK    7  A    between atoms: C0F_16  and  C0G_17 
REMARK    8  A    between atoms: C0N_23  and  C0O_24 
REMARK    9  A    between atoms: C0O_24  and  N0P_25 
ROOT
ATOM      1  C02 MOL     1       1.500  10.537  -2.123  1.00  0.00    -0.044 C 
ATOM      2  C03 MOL     1       0.349  11.304  -1.896  1.00  0.00     0.129 C 
ATOM      3  C08 MOL     1       0.192  12.153  -0.728  1.00  0.00    -0.316 C 
ATOM      4  C09 MOL     1       1.278  12.311   0.113  1.00  0.00     0.109 C 
ATOM      5  C0E MOL     1       2.400  11.545  -0.009  1.00  0.00    -0.064 C 
ATOM      6  C0N MOL     1       2.559  10.745  -1.166  1.00  0.00    -0.120 C 
ENDROOT
BRANCH   5   7
ATOM      7  C0F MOL     1       3.508  11.692   1.023  1.00  0.00     0.047 C 
BRANCH   7   8
ATOM      8  C0G MOL     1       3.587  10.726   2.174  1.00  0.00     0.171 C 
ATOM      9  C0M MOL     1       4.726  10.661   3.003  1.00  0.00    -0.195 C 
ATOM     10  C0K MOL     1       4.796   9.734   4.075  1.00  0.00    -0.062 C 
ATOM     11  C0J MOL     1       3.834   8.735   4.248  1.00  0.00    -0.135 C 
ATOM     12  C0I MOL     1       2.710   8.806   3.371  1.00  0.00    -0.071 C 
ATOM     13  C0H MOL     1       2.618   9.806   2.426  1.00  0.00    -0.152 C 
ENDBRANCH   7   8
ENDBRANCH   5   7
BRANCH   6  14
ATOM     14  C0O MOL     1       3.860   9.909  -1.395  1.00  0.00     0.092 C 
BRANCH  14  15
ATOM     15  N0P MOL     1       3.932   8.578  -0.712  1.00  0.00    -0.153 N 
ATOM     16  H0Q MOL     1       3.011   8.183  -0.608  1.00  0.00     0.257 HD
ATOM     17  H0R MOL     1       4.396   7.934  -1.346  1.00  0.00     0.244 HD
ATOM     18  H0S MOL     1       4.357   8.589   0.205  1.00  0.00     0.246 HD
ENDBRANCH  14  15
ENDBRANCH   6  14
BRANCH   4  19
ATOM     19  C0A MOL     1       1.160  13.446   1.157  1.00  0.00    -0.219 C 
BRANCH  19  20
ATOM     20  C0B MOL     1       0.204  13.146   2.357  1.00  0.00     0.819 C 
ATOM     21  N0C MOL     1       0.723  12.576   3.401  1.00  0.00    -0.993 N 
ATOM     22  H13 MOL     1       1.727  12.414   3.367  1.00  0.00     0.395 HD
ATOM     23  H14 MOL     1       0.143  12.285   4.165  1.00  0.00     0.440 HD
ATOM     24  O0D MOL     1      -0.956  13.516   2.335  1.00  0.00    -0.614 OA
ENDBRANCH  19  20
ENDBRANCH   4  19
BRANCH   1  25
ATOM     25  C01 MOL     1       1.663   9.590  -3.331  1.00  0.00    -0.066 C 
ATOM     26  C00 MOL     1       1.174   8.099  -3.000  1.00  0.00    -0.126 C 
ENDBRANCH   1  25
BRANCH   2  27
ATOM     27  C04 MOL     1      -0.899  11.265  -2.749  1.00  0.00    -0.266 C 
BRANCH  27  28
ATOM     28  C05 MOL     1      -1.814  10.093  -2.499  1.00  0.00     0.870 C 
ATOM     29  O06 MOL     1      -1.790   9.407  -1.496  1.00  0.00    -0.820 OA
ATOM     30  O07 MOL     1      -2.724   9.858  -3.365  1.00  0.00    -0.676 OA
ENDBRANCH  27  28
ENDBRANCH   2  27
TORSDOF 9
ENDMDL
MODEL 6
REMARK VINA RESULT:      -5.4     13.736     16.647
REMARK  9 active torsions:
REMARK  status: ('A' for Active; 'I' for Inactive)
REMARK    1  A    between atoms: C01_2  and  C02_3 
REMARK    2  A    between atoms: C03_4  and  C04_5 
REMARK    3  A    between atoms: C04_5  and  C05_6 
REMARK    4  A    between atoms: C09_10  and  C0A_11 
REMARK    5  A    between atoms: C0A_11  and  C0B_12 
REMARK       I    between atoms: C0B_12  and  N0C_13 
REMARK    6  A    between atoms: C0E_15  and  C0F_16 
REMARK    7  A    between atoms: C0F_16  and  C0G_17 
REMARK    8  A    between atoms: C0N_23  and  C0O_24 
REMARK    9  A    between atoms: C0O_24  and  N0P_25 
ROOT
ATOM      1  C02 MOL     1      -0.776   8.056 -20.507  1.00  0.00    -0.044 C 
ATOM      2  C03 MOL     1      -0.740   6.763 -19.969  1.00  0.00     0.129 C 
ATOM      3  C08 MOL     1      -1.943   6.026 -19.622  1.00  0.00    -0.316 C 
ATOM      4  C09 MOL     1      -3.164   6.573 -19.967  1.00  0.00     0.109 C 
ATOM      5  C0E MOL     1      -3.276   7.853 -20.428  1.00  0.00    -0.064 C 
ATOM      6  C0N MOL     1      -2.101   8.551 -20.794  1.00  0.00    -0.120 C 
ENDROOT
BRANCH   5   7
ATOM      7  C0F MOL     1      -4.661   8.428 -20.675  1.00  0.00     0.047 C 
BRANCH   7   8
ATOM      8  C0G MOL     1      -5.379   8.116 -21.960  1.00  0.00     0.171 C 
ATOM      9  C0M MOL     1      -5.031   8.751 -23.170  1.00  0.00    -0.195 C 
ATOM     10  C0K MOL     1      -5.727   8.462 -24.373  1.00  0.00    -0.062 C 
ATOM     11  C0J MOL     1      -6.888   7.684 -24.382  1.00  0.00    -0.135 C 
ATOM     12  C0I MOL     1      -7.235   7.083 -23.134  1.00  0.00    -0.071 C 
ATOM     13  C0H MOL     1      -6.453   7.285 -22.016  1.00  0.00    -0.152 C 
ENDBRANCH   7   8
ENDBRANCH   5   7
BRANCH   6  14
ATOM     14  C0O MOL     1      -2.174   9.990 -21.402  1.00  0.00     0.092 C 
BRANCH  14  15
ATOM     15  N0P MOL     1      -1.991  10.103 -22.884  1.00  0.00    -0.153 N 
ATOM     16  H0Q MOL     1      -1.227   9.524 -23.191  1.00  0.00     0.257 HD
ATOM     17  H0R MOL     1      -2.802   9.680 -23.325  1.00  0.00     0.244 HD
ATOM     18  H0S MOL     1      -1.812  11.038 -23.224  1.00  0.00     0.246 HD
ENDBRANCH  14  15
ENDBRANCH   6  14
BRANCH   4  19
ATOM     19  C0A MOL     1      -4.381   5.626 -19.852  1.00  0.00    -0.219 C 
BRANCH  19  20
ATOM     20  C0B MOL     1      -4.882   5.363 -18.394  1.00  0.00     0.819 C 
ATOM     21  N0C MOL     1      -5.800   6.154 -17.931  1.00  0.00    -0.993 N 
ATOM     22  H13 MOL     1      -6.153   6.855 -18.578  1.00  0.00     0.395 HD
ATOM     23  H14 MOL     1      -6.099   6.085 -16.976  1.00  0.00     0.440 HD
ATOM     24  O0D MOL     1      -4.481   4.400 -17.765  1.00  0.00    -0.614 OA
ENDBRANCH  19  20
ENDBRANCH   4  19
BRANCH   1  25
ATOM     25  C01 MOL     1       0.492   8.875 -20.835  1.00  0.00    -0.066 C 
ATOM     26  C00 MOL     1       1.149   8.436 -22.231  1.00  0.00    -0.126 C 
ENDBRANCH   1  25
BRANCH   2  27
ATOM     27  C04 MOL     1       0.519   6.022 -19.579  1.00  0.00    -0.266 C 
BRANCH  27  28
ATOM     28  C05 MOL     1       1.027   6.304 -18.187  1.00  0.00     0.870 C 
ATOM     29  O06 MOL     1       0.442   6.987 -17.370  1.00  0.00    -0.820 OA
ATOM     30  O07 MOL     1       2.104   5.722 -17.821  1.00  0.00    -0.676 OA
ENDBRANCH  27  28
ENDBRANCH   2  27
TORSDOF 9
ENDMDL
MODEL 7
REMARK VINA RESULT:      -5.4      1.821      2.420
REMARK  9 active torsions:
REMARK  status: ('A' for Active; 'I' for Inactive)
REMARK    1  A    between atoms: C01_2  and  C02_3 
REMARK    2  A    between atoms: C03_4  and  C04_5 
REMARK    3  A    between atoms: C04_5  and  C05_6 
REMARK    4  A    between atoms: C09_10  and  C0A_11 
REMARK    5  A    between atoms: C0A_11  and  C0B_12 
REMARK       I    between atoms: C0B_12  and  N0C_13 
REMARK    6  A    between atoms: C0E_15  and  C0F_16 
REMARK    7  A    between atoms: C0F_16  and  C0G_17 
REMARK    8  A    between atoms: C0N_23  and  C0O_24 
REMARK    9  A    between atoms: C0O_24  and  N0P_25 
ROOT
ATOM      1  C02 MOL     1       2.098   6.111  -6.602  1.00  0.00    -0.044 C 
ATOM      2  C03 MOL     1       1.128   5.642  -5.706  1.00  0.00     0.129 C 
ATOM      3  C08 MOL     1       0.284   6.535  -4.930  1.00  0.00    -0.316 C 
ATOM      4  C09 MOL     1       0.351   7.890  -5.195  1.00  0.00     0.109 C 
ATOM      5  C0E MOL     1       1.318   8.418  -6.001  1.00  0.00    -0.064 C 
ATOM      6  C0N MOL     1       2.113   7.542  -6.778  1.00  0.00    -0.120 C 
ENDROOT
BRANCH   5   7
ATOM      7  C0F MOL     1       1.404   9.929  -6.154  1.00  0.00     0.047 C 
BRANCH   7   8
ATOM      8  C0G MOL     1       2.385  10.707  -5.320  1.00  0.00     0.171 C 
ATOM      9  C0M MOL     1       2.231  10.828  -3.924  1.00  0.00    -0.195 C 
ATOM     10  C0K MOL     1       3.153  11.580  -3.150  1.00  0.00    -0.062 C 
ATOM     11  C0J MOL     1       4.137  12.373  -3.746  1.00  0.00    -0.135 C 
ATOM     12  C0I MOL     1       4.246  12.257  -5.164  1.00  0.00    -0.071 C 
ATOM     13  C0H MOL     1       3.413  11.411  -5.865  1.00  0.00    -0.152 C 
ENDBRANCH   7   8
ENDBRANCH   5   7
BRANCH   6  14
ATOM     14  C0O MOL     1       3.181   8.096  -7.778  1.00  0.00     0.092 C 
BRANCH  14  15
ATOM     15  N0P MOL     1       2.723   8.338  -9.183  1.00  0.00    -0.153 N 
ATOM     16  H0Q MOL     1       2.210   7.544  -9.529  1.00  0.00     0.257 HD
ATOM     17  H0R MOL     1       2.026   9.076  -9.153  1.00  0.00     0.244 HD
ATOM     18  H0S MOL     1       3.459   8.531  -9.847  1.00  0.00     0.246 HD
ENDBRANCH  14  15
ENDBRANCH   6  14
BRANCH   4  19
ATOM     19  C0A MOL     1      -0.767   8.754  -4.568  1.00  0.00    -0.219 C 
BRANCH  19  20
ATOM     20  C0B MOL     1      -1.368   8.198  -3.237  1.00  0.00     0.819 C 
ATOM     21  N0C MOL     1      -0.784   8.546  -2.132  1.00  0.00    -0.993 N 
ATOM     22  H13 MOL     1      -0.007   9.196  -2.223  1.00  0.00     0.395 HD
ATOM     23  H14 MOL     1      -1.074   8.154  -1.255  1.00  0.00     0.440 HD
ATOM     24  O0D MOL     1      -2.392   7.538  -3.245  1.00  0.00    -0.614 OA
ENDBRANCH  19  20
ENDBRANCH   4  19
BRANCH   1  25
ATOM     25  C01 MOL     1       3.039   5.178  -7.397  1.00  0.00    -0.066 C 
ATOM     26  C00 MOL     1       4.320   4.739  -6.537  1.00  0.00    -0.126 C 
ENDBRANCH   1  25
BRANCH   2  27
ATOM     27  C04 MOL     1       0.911   4.190  -5.346  1.00  0.00    -0.266 C 
BRANCH  27  28
ATOM     28  C05 MOL     1      -0.129   3.471  -6.167  1.00  0.00     0.870 C 
ATOM     29  O06 MOL     1      -0.960   2.711  -5.708  1.00  0.00    -0.820 OA
ATOM     30  O07 MOL     1      -0.187   3.739  -7.415  1.00  0.00    -0.676 OA
ENDBRANCH  27  28
ENDBRANCH   2  27
TORSDOF 9
ENDMDL
MODEL 8
REMARK VINA RESULT:      -5.2     17.595     20.698
REMARK  9 active torsions:
REMARK  status: ('A' for Active; 'I' for Inactive)
REMARK    1  A    between atoms: C01_2  and  C02_3 
REMARK    2  A    between atoms: C03_4  and  C04_5 
REMARK    3  A    between atoms: C04_5  and  C05_6 
REMARK    4  A    between atoms: C09_10  and  C0A_11 
REMARK    5  A    between atoms: C0A_11  and  C0B_12 
REMARK       I    between atoms: C0B_12  and  N0C_13 
REMARK    6  A    between atoms: C0E_15  and  C0F_16 
REMARK    7  A    between atoms: C0F_16  and  C0G_17 
REMARK    8  A    between atoms: C0N_23  and  C0O_24 
REMARK    9  A    between atoms: C0O_24  and  N0P_25 
ROOT
ATOM      1  C02 MOL     1      -5.006   8.360 -22.219  1.00  0.00    -0.044 C 
ATOM      2  C03 MOL     1      -3.886   9.185 -22.046  1.00  0.00     0.129 C 
ATOM      3  C08 MOL     1      -3.237   9.865 -23.153  1.00  0.00    -0.316 C 
ATOM      4  C09 MOL     1      -3.833   9.800 -24.398  1.00  0.00     0.109 C 
ATOM      5  C0E MOL     1      -4.880   8.962 -24.651  1.00  0.00    -0.064 C 
ATOM      6  C0N MOL     1      -5.528   8.330 -23.564  1.00  0.00    -0.120 C 
ENDROOT
BRANCH   5   7
ATOM      7  C0F MOL     1      -5.411   8.856 -26.073  1.00  0.00     0.047 C 
BRANCH   7   8
ATOM      8  C0G MOL     1      -5.008   7.691 -26.934  1.00  0.00     0.171 C 
ATOM      9  C0M MOL     1      -5.957   6.760 -27.404  1.00  0.00    -0.195 C 
ATOM     10  C0K MOL     1      -5.562   5.654 -28.201  1.00  0.00    -0.062 C 
ATOM     11  C0J MOL     1      -4.216   5.338 -28.405  1.00  0.00    -0.135 C 
ATOM     12  C0I MOL     1      -3.278   6.281 -27.888  1.00  0.00    -0.071 C 
ATOM     13  C0H MOL     1      -3.710   7.414 -27.231  1.00  0.00    -0.152 C 
ENDBRANCH   7   8
ENDBRANCH   5   7
BRANCH   6  14
ATOM     14  C0O MOL     1      -6.782   7.422 -23.788  1.00  0.00     0.092 C 
BRANCH  14  15
ATOM     15  N0P MOL     1      -8.095   8.122 -23.960  1.00  0.00    -0.153 N 
ATOM     16  H0Q MOL     1      -8.856   7.465 -23.904  1.00  0.00     0.257 HD
ATOM     17  H0R MOL     1      -8.233   8.715 -23.147  1.00  0.00     0.244 HD
ATOM     18  H0S MOL     1      -8.201   8.629 -24.828  1.00  0.00     0.246 HD
ENDBRANCH  14  15
ENDBRANCH   6  14
BRANCH   4  19
ATOM     19  C0A MOL     1      -3.278  10.775 -25.461  1.00  0.00    -0.219 C 
BRANCH  19  20
ATOM     20  C0B MOL     1      -3.542  12.290 -25.175  1.00  0.00     0.819 C 
ATOM     21  N0C MOL     1      -4.761  12.714 -25.309  1.00  0.00    -0.993 N 
ATOM     22  H13 MOL     1      -5.456  12.009 -25.544  1.00  0.00     0.395 HD
ATOM     23  H14 MOL     1      -4.974  13.691 -25.220  1.00  0.00     0.440 HD
ATOM     24  O0D MOL     1      -2.650  13.008 -24.762  1.00  0.00    -0.614 OA
ENDBRANCH  19  20
ENDBRANCH   4  19
BRANCH   1  25
ATOM     25  C01 MOL     1      -5.678   7.589 -21.062  1.00  0.00    -0.066 C 
ATOM     26  C00 MOL     1      -4.933   6.204 -20.746  1.00  0.00    -0.126 C 
ENDBRANCH   1  25
BRANCH   2  27
ATOM     27  C04 MOL     1      -3.152   9.384 -20.739  1.00  0.00    -0.266 C 
BRANCH  27  28
ATOM     28  C05 MOL     1      -1.842   8.647 -20.618  1.00  0.00     0.870 C 
ATOM     29  O06 MOL     1      -1.645   7.525 -21.044  1.00  0.00    -0.820 OA
ATOM     30  O07 MOL     1      -0.855   9.274 -20.103  1.00  0.00    -0.676 OA
ENDBRANCH  27  28
ENDBRANCH   2  27
TORSDOF 9
ENDMDL
MODEL 9
REMARK VINA RESULT:      -5.1     12.193     14.767
REMARK  9 active torsions:
REMARK  status: ('A' for Active; 'I' for Inactive)
REMARK    1  A    between atoms: C01_2  and  C02_3 
REMARK    2  A    between atoms: C03_4  and  C04_5 
REMARK    3  A    between atoms: C04_5  and  C05_6 
REMARK    4  A    between atoms: C09_10  and  C0A_11 
REMARK    5  A    between atoms: C0A_11  and  C0B_12 
REMARK       I    between atoms: C0B_12  and  N0C_13 
REMARK    6  A    between atoms: C0E_15  and  C0F_16 
REMARK    7  A    between atoms: C0F_16  and  C0G_17 
REMARK    8  A    between atoms: C0N_23  and  C0O_24 
REMARK    9  A    between atoms: C0O_24  and  N0P_25 
ROOT
ATOM      1  C02 MOL     1       2.905   5.451 -19.482  1.00  0.00    -0.044 C 
ATOM      2  C03 MOL     1       3.317   5.833 -18.198  1.00  0.00     0.129 C 
ATOM      3  C08 MOL     1       2.584   6.799 -17.397  1.00  0.00    -0.316 C 
ATOM      4  C09 MOL     1       1.365   7.246 -17.869  1.00  0.00     0.109 C 
ATOM      5  C0E MOL     1       0.938   6.969 -19.136  1.00  0.00    -0.064 C 
ATOM      6  C0N MOL     1       1.639   6.003 -19.897  1.00  0.00    -0.120 C 
ENDROOT
BRANCH   5   7
ATOM      7  C0F MOL     1      -0.359   7.591 -19.628  1.00  0.00     0.047 C 
BRANCH   7   8
ATOM      8  C0G MOL     1      -1.657   6.852 -19.446  1.00  0.00     0.171 C 
ATOM      9  C0M MOL     1      -1.742   5.706 -18.629  1.00  0.00    -0.195 C 
ATOM     10  C0K MOL     1      -2.968   5.006 -18.479  1.00  0.00    -0.062 C 
ATOM     11  C0J MOL     1      -4.086   5.306 -19.262  1.00  0.00    -0.135 C 
ATOM     12  C0I MOL     1      -3.957   6.451 -20.105  1.00  0.00    -0.071 C 
ATOM     13  C0H MOL     1      -2.789   7.183 -20.122  1.00  0.00    -0.152 C 
ENDBRANCH   7   8
ENDBRANCH   5   7
BRANCH   6  14
ATOM     14  C0O MOL     1       1.149   5.590 -21.323  1.00  0.00     0.092 C 
BRANCH  14  15
ATOM     15  N0P MOL     1       1.524   6.499 -22.452  1.00  0.00    -0.153 N 
ATOM     16  H0Q MOL     1       0.780   6.550 -23.128  1.00  0.00     0.257 HD
ATOM     17  H0R MOL     1       1.571   7.443 -22.080  1.00  0.00     0.244 HD
ATOM     18  H0S MOL     1       2.364   6.240 -22.951  1.00  0.00     0.246 HD
ENDBRANCH  14  15
ENDBRANCH   6  14
BRANCH   4  19
ATOM     19  C0A MOL     1       0.496   8.026 -16.856  1.00  0.00    -0.219 C 
BRANCH  19  20
ATOM     20  C0B MOL     1       0.909   9.517 -16.637  1.00  0.00     0.819 C 
ATOM     21  N0C MOL     1       0.457  10.388 -17.486  1.00  0.00    -0.993 N 
ATOM     22  H13 MOL     1      -0.173  10.030 -18.200  1.00  0.00     0.395 HD
ATOM     23  H14 MOL     1       0.756  11.345 -17.444  1.00  0.00     0.440 HD
ATOM     24  O0D MOL     1       1.556   9.845 -15.659  1.00  0.00    -0.614 OA
ENDBRANCH  19  20
ENDBRANCH   4  19
BRANCH   1  25
ATOM     25  C01 MOL     1       3.698   4.465 -20.368  1.00  0.00    -0.066 C 
ATOM     26  C00 MOL     1       4.784   5.214 -21.281  1.00  0.00    -0.126 C 
ENDBRANCH   1  25
BRANCH   2  27
ATOM     27  C04 MOL     1       4.604   5.397 -17.535  1.00  0.00    -0.266 C 
BRANCH  27  28
ATOM     28  C05 MOL     1       5.823   6.205 -17.900  1.00  0.00     0.870 C 
ATOM     29  O06 MOL     1       5.910   7.411 -17.772  1.00  0.00    -0.820 OA
ATOM     30  O07 MOL     1       6.858   5.569 -18.296  1.00  0.00    -0.676 OA
ENDBRANCH  27  28
ENDBRANCH   2  27
TORSDOF 9
ENDMDL
MODEL 10
REMARK VINA RESULT:      -5.1     14.517     17.615
REMARK  9 active torsions:
REMARK  status: ('A' for Active; 'I' for Inactive)
REMARK    1  A    between atoms: C01_2  and  C02_3 
REMARK    2  A    between atoms: C03_4  and  C04_5 
REMARK    3  A    between atoms: C04_5  and  C05_6 
REMARK    4  A    between atoms: C09_10  and  C0A_11 
REMARK    5  A    between atoms: C0A_11  and  C0B_12 
REMARK       I    between atoms: C0B_12  and  N0C_13 
REMARK    6  A    between atoms: C0E_15  and  C0F_16 
REMARK    7  A    between atoms: C0F_16  and  C0G_17 
REMARK    8  A    between atoms: C0N_23  and  C0O_24 
REMARK    9  A    between atoms: C0O_24  and  N0P_25 
ROOT
ATOM      1  C02 MOL     1       0.575   7.264 -23.505  1.00  0.00    -0.044 C 
ATOM      2  C03 MOL     1       1.034   6.286 -22.611  1.00  0.00     0.129 C 
ATOM      3  C08 MOL     1       0.441   6.084 -21.301  1.00  0.00    -0.316 C 
ATOM      4  C09 MOL     1      -0.705   6.791 -20.988  1.00  0.00     0.109 C 
ATOM      5  C0E MOL     1      -1.164   7.804 -21.778  1.00  0.00    -0.064 C 
ATOM      6  C0N MOL     1      -0.603   7.973 -23.067  1.00  0.00    -0.120 C 
ENDROOT
BRANCH   5   7
ATOM      7  C0F MOL     1      -2.363   8.616 -21.313  1.00  0.00     0.047 C 
BRANCH   7   8
ATOM      8  C0G MOL     1      -3.746   8.228 -21.761  1.00  0.00     0.171 C 
ATOM      9  C0M MOL     1      -4.385   8.890 -22.830  1.00  0.00    -0.195 C 
ATOM     10  C0K MOL     1      -5.697   8.527 -23.232  1.00  0.00    -0.062 C 
ATOM     11  C0J MOL     1      -6.475   7.636 -22.487  1.00  0.00    -0.135 C 
ATOM     12  C0I MOL     1      -5.811   7.009 -21.390  1.00  0.00    -0.071 C 
ATOM     13  C0H MOL     1      -4.490   7.293 -21.113  1.00  0.00    -0.152 C 
ENDBRANCH   7   8
ENDBRANCH   5   7
BRANCH   6  14
ATOM     14  C0O MOL     1      -1.144   9.067 -24.045  1.00  0.00     0.092 C 
BRANCH  14  15
ATOM     15  N0P MOL     1      -0.633  10.460 -23.843  1.00  0.00    -0.153 N 
ATOM     16  H0Q MOL     1      -0.670  10.979 -24.706  1.00  0.00     0.257 HD
ATOM     17  H0R MOL     1      -1.296  10.945 -23.246  1.00  0.00     0.244 HD
ATOM     18  H0S MOL     1       0.314  10.523 -23.497  1.00  0.00     0.246 HD
ENDBRANCH  14  15
ENDBRANCH   6  14
BRANCH   4  19
ATOM     19  C0A MOL     1      -1.459   6.323 -19.722  1.00  0.00    -0.219 C 
BRANCH  19  20
ATOM     20  C0B MOL     1      -0.758   6.666 -18.367  1.00  0.00     0.819 C 
ATOM     21  N0C MOL     1      -0.731   5.737 -17.462  1.00  0.00    -0.993 N 
ATOM     22  H13 MOL     1      -1.130   4.840 -17.730  1.00  0.00     0.395 HD
ATOM     23  H14 MOL     1      -0.369   5.927 -16.545  1.00  0.00     0.440 HD
ATOM     24  O0D MOL     1      -0.189   7.732 -18.214  1.00  0.00    -0.614 OA
ENDBRANCH  19  20
ENDBRANCH   4  19
BRANCH   1  25
ATOM     25  C01 MOL     1       1.225   7.528 -24.880  1.00  0.00    -0.066 C 
ATOM     26  C00 MOL     1       0.717   6.494 -25.996  1.00  0.00    -0.126 C 
ENDBRANCH   1  25
BRANCH   2  27
ATOM     27  C04 MOL     1       2.247   5.412 -22.833  1.00  0.00    -0.266 C 
BRANCH  27  28
ATOM     28  C05 MOL     1       1.967   3.933 -22.928  1.00  0.00     0.870 C 
ATOM     29  O06 MOL     1       1.284   3.420 -23.792  1.00  0.00    -0.820 OA
ATOM     30  O07 MOL     1       2.552   3.165 -22.091  1.00  0.00    -0.676 OA
ENDBRANCH  27  28
ENDBRANCH   2  27
TORSDOF 9
ENDMDL
MODEL 11
REMARK VINA RESULT:      -5.1     17.802     20.461
REMARK  9 active torsions:
REMARK  status: ('A' for Active; 'I' for Inactive)
REMARK    1  A    between atoms: C01_2  and  C02_3 
REMARK    2  A    between atoms: C03_4  and  C04_5 
REMARK    3  A    between atoms: C04_5  and  C05_6 
REMARK    4  A    between atoms: C09_10  and  C0A_11 
REMARK    5  A    between atoms: C0A_11  and  C0B_12 
REMARK       I    between atoms: C0B_12  and  N0C_13 
REMARK    6  A    between atoms: C0E_15  and  C0F_16 
REMARK    7  A    between atoms: C0F_16  and  C0G_17 
REMARK    8  A    between atoms: C0N_23  and  C0O_24 
REMARK    9  A    between atoms: C0O_24  and  N0P_25 
ROOT
ATOM      1  C02 MOL     1      -6.719   5.805  13.174  1.00  0.00    -0.044 C 
ATOM      2  C03 MOL     1      -7.584   6.454  12.283  1.00  0.00     0.129 C 
ATOM      3  C08 MOL     1      -8.302   5.747  11.236  1.00  0.00    -0.316 C 
ATOM      4  C09 MOL     1      -8.231   4.367  11.214  1.00  0.00     0.109 C 
ATOM      5  C0E MOL     1      -7.357   3.679  12.005  1.00  0.00    -0.064 C 
ATOM      6  C0N MOL     1      -6.686   4.368  13.043  1.00  0.00    -0.120 C 
ENDROOT
BRANCH   5   7
ATOM      7  C0F MOL     1      -7.250   2.170  11.844  1.00  0.00     0.047 C 
BRANCH   7   8
ATOM      8  C0G MOL     1      -8.311   1.281  12.432  1.00  0.00     0.171 C 
ATOM      9  C0M MOL     1      -8.755   1.443  13.761  1.00  0.00    -0.195 C 
ATOM     10  C0K MOL     1      -9.744   0.586  14.310  1.00  0.00    -0.062 C 
ATOM     11  C0J MOL     1     -10.188  -0.553  13.633  1.00  0.00    -0.135 C 
ATOM     12  C0I MOL     1      -9.694  -0.710  12.303  1.00  0.00    -0.071 C 
ATOM     13  C0H MOL     1      -8.834   0.221  11.759  1.00  0.00    -0.152 C 
ENDBRANCH   7   8
ENDBRANCH   5   7
BRANCH   6  14
ATOM     14  C0O MOL     1      -5.735   3.614  14.029  1.00  0.00     0.092 C 
BRANCH  14  15
ATOM     15  N0P MOL     1      -4.371   3.271  13.514  1.00  0.00    -0.153 N 
ATOM     16  H0Q MOL     1      -4.284   2.277  13.378  1.00  0.00     0.257 HD
ATOM     17  H0R MOL     1      -4.296   3.647  12.574  1.00  0.00     0.244 HD
ATOM     18  H0S MOL     1      -3.605   3.559  14.106  1.00  0.00     0.246 HD
ENDBRANCH  14  15
ENDBRANCH   6  14
BRANCH   4  19
ATOM     19  C0A MOL     1      -9.241   3.657  10.283  1.00  0.00    -0.219 C 
BRANCH  19  20
ATOM     20  C0B MOL     1      -8.665   3.207   8.901  1.00  0.00     0.819 C 
ATOM     21  N0C MOL     1      -8.863   1.973   8.550  1.00  0.00    -0.993 N 
ATOM     22  H13 MOL     1      -9.421   1.411   9.189  1.00  0.00     0.395 HD
ATOM     23  H14 MOL     1      -8.445   1.607   7.714  1.00  0.00     0.440 HD
ATOM     24  O0D MOL     1      -8.134   4.012   8.157  1.00  0.00    -0.614 OA
ENDBRANCH  19  20
ENDBRANCH   4  19
BRANCH   1  25
ATOM     25  C01 MOL     1      -5.908   6.545  14.260  1.00  0.00    -0.066 C 
ATOM     26  C00 MOL     1      -4.500   7.077  13.703  1.00  0.00    -0.126 C 
ENDBRANCH   1  25
BRANCH   2  27
ATOM     27  C04 MOL     1      -7.793   7.949  12.214  1.00  0.00    -0.266 C 
BRANCH  27  28
ATOM     28  C05 MOL     1      -9.230   8.402  12.275  1.00  0.00     0.870 C 
ATOM     29  O06 MOL     1      -9.990   8.150  13.190  1.00  0.00    -0.820 OA
ATOM     30  O07 MOL     1      -9.651   9.165  11.340  1.00  0.00    -0.676 OA
ENDBRANCH  27  28
ENDBRANCH   2  27
TORSDOF 9
ENDMDL
MODEL 12
REMARK VINA RESULT:      -5.0     13.026     16.265
REMARK  9 active torsions:
REMARK  status: ('A' for Active; 'I' for Inactive)
REMARK    1  A    between atoms: C01_2  and  C02_3 
REMARK    2  A    between atoms: C03_4  and  C04_5 
REMARK    3  A    between atoms: C04_5  and  C05_6 
REMARK    4  A    between atoms: C09_10  and  C0A_11 
REMARK    5  A    between atoms: C0A_11  and  C0B_12 
REMARK       I    between atoms: C0B_12  and  N0C_13 
REMARK    6  A    between atoms: C0E_15  and  C0F_16 
REMARK    7  A    between atoms: C0F_16  and  C0G_17 
REMARK    8  A    between atoms: C0N_23  and  C0O_24 
REMARK    9  A    between atoms: C0O_24  and  N0P_25 
ROOT
ATOM      1  C02 MOL     1       0.598   8.839 -19.026  1.00  0.00    -0.044 C 
ATOM      2  C03 MOL     1       0.237   9.915 -19.848  1.00  0.00     0.129 C 
ATOM      3  C08 MOL     1      -0.754   9.794 -20.904  1.00  0.00    -0.316 C 
ATOM      4  C09 MOL     1      -1.461   8.611 -21.002  1.00  0.00     0.109 C 
ATOM      5  C0E MOL     1      -1.114   7.504 -20.283  1.00  0.00    -0.064 C 
ATOM      6  C0N MOL     1      -0.172   7.637 -19.235  1.00  0.00    -0.120 C 
ENDROOT
BRANCH   5   7
ATOM      7  C0F MOL     1      -1.862   6.202 -20.529  1.00  0.00     0.047 C 
BRANCH   7   8
ATOM      8  C0G MOL     1      -3.075   5.872 -19.703  1.00  0.00     0.171 C 
ATOM      9  C0M MOL     1      -4.256   6.638 -19.791  1.00  0.00    -0.195 C 
ATOM     10  C0K MOL     1      -5.388   6.328 -18.994  1.00  0.00    -0.062 C 
ATOM     11  C0J MOL     1      -5.329   5.378 -17.970  1.00  0.00    -0.135 C 
ATOM     12  C0I MOL     1      -4.108   4.644 -17.883  1.00  0.00    -0.071 C 
ATOM     13  C0H MOL     1      -3.077   4.887 -18.766  1.00  0.00    -0.152 C 
ENDBRANCH   7   8
ENDBRANCH   5   7
BRANCH   6  14
ATOM     14  C0O MOL     1       0.202   6.420 -18.328  1.00  0.00     0.092 C 
BRANCH  14  15
ATOM     15  N0P MOL     1      -0.389   6.401 -16.952  1.00  0.00    -0.153 N 
ATOM     16  H0Q MOL     1       0.224   6.860 -16.298  1.00  0.00     0.257 HD
ATOM     17  H0R MOL     1      -1.211   6.996 -16.965  1.00  0.00     0.244 HD
ATOM     18  H0S MOL     1      -0.585   5.482 -16.582  1.00  0.00     0.246 HD
ENDBRANCH  14  15
ENDBRANCH   6  14
BRANCH   4  19
ATOM     19  C0A MOL     1      -2.696   8.640 -21.931  1.00  0.00    -0.219 C 
BRANCH  19  20
ATOM     20  C0B MOL     1      -2.399   9.023 -23.418  1.00  0.00     0.819 C 
ATOM     21  N0C MOL     1      -3.145   9.940 -23.954  1.00  0.00    -0.993 N 
ATOM     22  H13 MOL     1      -3.835  10.369 -23.341  1.00  0.00     0.395 HD
ATOM     23  H14 MOL     1      -3.056  10.166 -24.927  1.00  0.00     0.440 HD
ATOM     24  O0D MOL     1      -1.451   8.537 -24.007  1.00  0.00    -0.614 OA
ENDBRANCH  19  20
ENDBRANCH   4  19
BRANCH   1  25
ATOM     25  C01 MOL     1       1.685   8.934 -17.934  1.00  0.00    -0.066 C 
ATOM     26  C00 MOL     1       1.134   9.620 -16.592  1.00  0.00    -0.126 C 
ENDBRANCH   1  25
BRANCH   2  27
ATOM     27  C04 MOL     1       0.892  11.277 -19.829  1.00  0.00    -0.266 C 
BRANCH  27  28
ATOM     28  C05 MOL     1       1.145  11.890 -21.183  1.00  0.00     0.870 C 
ATOM     29  O06 MOL     1       0.532  12.840 -21.630  1.00  0.00    -0.820 OA
ATOM     30  O07 MOL     1       2.118  11.428 -21.870  1.00  0.00    -0.676 OA
ENDBRANCH  27  28
ENDBRANCH   2  27
TORSDOF 9
ENDMDL
MODEL 13
REMARK VINA RESULT:      -5.0     18.846     21.212
REMARK  9 active torsions:
REMARK  status: ('A' for Active; 'I' for Inactive)
REMARK    1  A    between atoms: C01_2  and  C02_3 
REMARK    2  A    between atoms: C03_4  and  C04_5 
REMARK    3  A    between atoms: C04_5  and  C05_6 
REMARK    4  A    between atoms: C09_10  and  C0A_11 
REMARK    5  A    between atoms: C0A_11  and  C0B_12 
REMARK       I    between atoms: C0B_12  and  N0C_13 
REMARK    6  A    between atoms: C0E_15  and  C0F_16 
REMARK    7  A    between atoms: C0F_16  and  C0G_17 
REMARK    8  A    between atoms: C0N_23  and  C0O_24 
REMARK    9  A    between atoms: C0O_24  and  N0P_25 
ROOT
ATOM      1  C02 MOL     1      -4.583   7.429 -27.193  1.00  0.00    -0.044 C 
ATOM      2  C03 MOL     1      -5.838   6.854 -27.435  1.00  0.00     0.129 C 
ATOM      3  C08 MOL     1      -6.954   6.994 -26.515  1.00  0.00    -0.316 C 
ATOM      4  C09 MOL     1      -6.804   7.842 -25.434  1.00  0.00     0.109 C 
ATOM      5  C0E MOL     1      -5.593   8.377 -25.101  1.00  0.00    -0.064 C 
ATOM      6  C0N MOL     1      -4.521   8.264 -26.017  1.00  0.00    -0.120 C 
ENDROOT
BRANCH   5   7
ATOM      7  C0F MOL     1      -5.479   9.206 -23.831  1.00  0.00     0.047 C 
BRANCH   7   8
ATOM      8  C0G MOL     1      -4.991   8.562 -22.562  1.00  0.00     0.171 C 
ATOM      9  C0M MOL     1      -3.748   8.907 -21.992  1.00  0.00    -0.195 C 
ATOM     10  C0K MOL     1      -3.291   8.279 -20.804  1.00  0.00    -0.062 C 
ATOM     11  C0J MOL     1      -3.954   7.181 -20.250  1.00  0.00    -0.135 C 
ATOM     12  C0I MOL     1      -5.192   6.833 -20.870  1.00  0.00    -0.071 C 
ATOM     13  C0H MOL     1      -5.666   7.555 -21.945  1.00  0.00    -0.152 C 
ENDBRANCH   7   8
ENDBRANCH   5   7
BRANCH   6  14
ATOM     14  C0O MOL     1      -3.135   8.926 -25.723  1.00  0.00     0.092 C 
BRANCH  14  15
ATOM     15  N0P MOL     1      -2.949  10.334 -26.200  1.00  0.00    -0.153 N 
ATOM     16  H0Q MOL     1      -2.496  10.346 -27.098  1.00  0.00     0.257 HD
ATOM     17  H0R MOL     1      -3.871  10.714 -26.394  1.00  0.00     0.244 HD
ATOM     18  H0S MOL     1      -2.410  10.927 -25.584  1.00  0.00     0.246 HD
ENDBRANCH  14  15
ENDBRANCH   6  14
BRANCH   4  19
ATOM     19  C0A MOL     1      -8.101   8.188 -24.666  1.00  0.00    -0.219 C 
BRANCH  19  20
ATOM     20  C0B MOL     1      -8.995   9.283 -25.333  1.00  0.00     0.819 C 
ATOM     21  N0C MOL     1      -8.646  10.521 -25.156  1.00  0.00    -0.993 N 
ATOM     22  H13 MOL     1      -7.786  10.672 -24.634  1.00  0.00     0.395 HD
ATOM     23  H14 MOL     1      -9.228  11.267 -25.490  1.00  0.00     0.440 HD
ATOM     24  O0D MOL     1      -9.923   8.971 -26.056  1.00  0.00    -0.614 OA
ENDBRANCH  19  20
ENDBRANCH   4  19
BRANCH   1  25
ATOM     25  C01 MOL     1      -3.371   7.249 -28.133  1.00  0.00    -0.066 C 
ATOM     26  C00 MOL     1      -2.486   5.970 -27.738  1.00  0.00    -0.126 C 
ENDBRANCH   1  25
BRANCH   2  27
ATOM     27  C04 MOL     1      -6.161   5.939 -28.594  1.00  0.00    -0.266 C 
BRANCH  27  28
ATOM     28  C05 MOL     1      -6.091   4.464 -28.289  1.00  0.00     0.870 C 
ATOM     29  O06 MOL     1      -7.001   3.821 -27.802  1.00  0.00    -0.820 OA
ATOM     30  O07 MOL     1      -5.034   3.837 -28.639  1.00  0.00    -0.676 OA
ENDBRANCH  27  28
ENDBRANCH   2  27
TORSDOF 9
ENDMDL
MODEL 14
REMARK VINA RESULT:      -5.0     25.493     27.768
REMARK  9 active torsions:
REMARK  status: ('A' for Active; 'I' for Inactive)
REMARK    1  A    between atoms: C01_2  and  C02_3 
REMARK    2  A    between atoms: C03_4  and  C04_5 
REMARK    3  A    between atoms: C04_5  and  C05_6 
REMARK    4  A    between atoms: C09_10  and  C0A_11 
REMARK    5  A    between atoms: C0A_11  and  C0B_12 
REMARK       I    between atoms: C0B_12  and  N0C_13 
REMARK    6  A    between atoms: C0E_15  and  C0F_16 
REMARK    7  A    between atoms: C0F_16  and  C0G_17 
REMARK    8  A    between atoms: C0N_23  and  C0O_24 
REMARK    9  A    between atoms: C0O_24  and  N0P_25 
ROOT
ATOM      1  C02 MOL     1     -27.747   5.069 -10.522  1.00  0.00    -0.044 C 
ATOM      2  C03 MOL     1     -28.169   4.537  -9.296  1.00  0.00     0.129 C 
ATOM      3  C08 MOL     1     -27.269   3.838  -8.395  1.00  0.00    -0.316 C 
ATOM      4  C09 MOL     1     -25.921   3.824  -8.702  1.00  0.00     0.109 C 
ATOM      5  C0E MOL     1     -25.453   4.260  -9.908  1.00  0.00    -0.064 C 
ATOM      6  C0N MOL     1     -26.329   4.968 -10.765  1.00  0.00    -0.120 C 
ENDROOT
BRANCH   5   7
ATOM      7  C0F MOL     1     -23.973   4.105 -10.222  1.00  0.00     0.047 C 
BRANCH   7   8
ATOM      8  C0G MOL     1     -23.496   2.905 -10.994  1.00  0.00     0.171 C 
ATOM      9  C0M MOL     1     -23.214   1.682 -10.353  1.00  0.00    -0.195 C 
ATOM     10  C0K MOL     1     -22.748   0.562 -11.089  1.00  0.00    -0.062 C 
ATOM     11  C0J MOL     1     -22.379   0.667 -12.433  1.00  0.00    -0.135 C 
ATOM     12  C0I MOL     1     -22.644   1.929 -13.046  1.00  0.00    -0.071 C 
ATOM     13  C0H MOL     1     -23.222   2.952 -12.325  1.00  0.00    -0.152 C 
ENDBRANCH   7   8
ENDBRANCH   5   7
BRANCH   6  14
ATOM     14  C0O MOL     1     -25.825   5.558 -12.123  1.00  0.00     0.092 C 
BRANCH  14  15
ATOM     15  N0P MOL     1     -25.205   6.921 -12.073  1.00  0.00    -0.153 N 
ATOM     16  H0Q MOL     1     -25.861   7.596 -11.715  1.00  0.00     0.257 HD
ATOM     17  H0R MOL     1     -24.477   6.899 -11.364  1.00  0.00     0.244 HD
ATOM     18  H0S MOL     1     -24.868   7.271 -12.959  1.00  0.00     0.246 HD
ENDBRANCH  14  15
ENDBRANCH   6  14
BRANCH   4  19
ATOM     19  C0A MOL     1     -24.980   3.339  -7.576  1.00  0.00    -0.219 C 
BRANCH  19  20
ATOM     20  C0B MOL     1     -25.388   1.987  -6.906  1.00  0.00     0.819 C 
ATOM     21  N0C MOL     1     -24.608   0.968  -7.103  1.00  0.00    -0.993 N 
ATOM     22  H13 MOL     1     -23.765   1.150  -7.641  1.00  0.00     0.395 HD
ATOM     23  H14 MOL     1     -24.864   0.058  -6.767  1.00  0.00     0.440 HD
ATOM     24  O0D MOL     1     -26.352   1.928  -6.163  1.00  0.00    -0.614 OA
ENDBRANCH  19  20
ENDBRANCH   4  19
BRANCH   1  25
ATOM     25  C01 MOL     1     -28.700   5.769 -11.516  1.00  0.00    -0.066 C 
ATOM     26  C00 MOL     1     -29.073   7.257 -11.047  1.00  0.00    -0.126 C 
ENDBRANCH   1  25
BRANCH   2  27
ATOM     27  C04 MOL     1     -29.600   4.514  -8.809  1.00  0.00    -0.266 C 
BRANCH  27  28
ATOM     28  C05 MOL     1     -29.874   5.337  -7.575  1.00  0.00     0.870 C 
ATOM     29  O06 MOL     1     -30.038   4.872  -6.464  1.00  0.00    -0.820 OA
ATOM     30  O07 MOL     1     -29.853   6.609  -7.695  1.00  0.00    -0.676 OA
ENDBRANCH  27  28
ENDBRANCH   2  27
TORSDOF 9
ENDMDL
MODEL 15
REMARK VINA RESULT:      -4.9     21.534     23.828
REMARK  9 active torsions:
REMARK  status: ('A' for Active; 'I' for Inactive)
REMARK    1  A    between atoms: C01_2  and  C02_3 
REMARK    2  A    between atoms: C03_4  and  C04_5 
REMARK    3  A    between atoms: C04_5  and  C05_6 
REMARK    4  A    between atoms: C09_10  and  C0A_11 
REMARK    5  A    between atoms: C0A_11  and  C0B_12 
REMARK       I    between atoms: C0B_12  and  N0C_13 
REMARK    6  A    between atoms: C0E_15  and  C0F_16 
REMARK    7  A    between atoms: C0F_16  and  C0G_17 
REMARK    8  A    between atoms: C0N_23  and  C0O_24 
REMARK    9  A    between atoms: C0O_24  and  N0P_25 
ROOT
ATOM      1  C02 MOL     1     -12.991   1.330  12.955  1.00  0.00    -0.044 C 
ATOM      2  C03 MOL     1     -12.094   2.358  12.632  1.00  0.00     0.129 C 
ATOM      3  C08 MOL     1     -10.670   2.265  12.901  1.00  0.00    -0.316 C 
ATOM      4  C09 MOL     1     -10.171   1.062  13.364  1.00  0.00     0.109 C 
ATOM      5  C0E MOL     1     -10.992   0.048  13.763  1.00  0.00    -0.064 C 
ATOM      6  C0N MOL     1     -12.374   0.132  13.468  1.00  0.00    -0.120 C 
ENDROOT
BRANCH   5   7
ATOM      7  C0F MOL     1     -10.376  -1.202  14.371  1.00  0.00     0.047 C 
BRANCH   7   8
ATOM      8  C0G MOL     1     -10.400  -1.395  15.863  1.00  0.00     0.171 C 
ATOM      9  C0M MOL     1     -10.507  -0.299  16.745  1.00  0.00    -0.195 C 
ATOM     10  C0K MOL     1     -10.510  -0.492  18.151  1.00  0.00    -0.062 C 
ATOM     11  C0J MOL     1     -10.230  -1.735  18.724  1.00  0.00    -0.135 C 
ATOM     12  C0I MOL     1     -10.092  -2.819  17.804  1.00  0.00    -0.071 C 
ATOM     13  C0H MOL     1     -10.228  -2.610  16.448  1.00  0.00    -0.152 C 
ENDBRANCH   7   8
ENDBRANCH   5   7
BRANCH   6  14
ATOM     14  C0O MOL     1     -13.348  -1.036  13.831  1.00  0.00     0.092 C 
BRANCH  14  15
ATOM     15  N0P MOL     1     -13.431  -2.169  12.855  1.00  0.00    -0.153 N 
ATOM     16  H0Q MOL     1     -12.578  -2.704  12.861  1.00  0.00     0.257 HD
ATOM     17  H0R MOL     1     -14.124  -2.824  13.206  1.00  0.00     0.244 HD
ATOM     18  H0S MOL     1     -13.608  -1.899  11.898  1.00  0.00     0.246 HD
ENDBRANCH  14  15
ENDBRANCH   6  14
BRANCH   4  19
ATOM     19  C0A MOL     1      -8.631   0.920  13.345  1.00  0.00    -0.219 C 
BRANCH  19  20
ATOM     20  C0B MOL     1      -7.995   0.784  11.923  1.00  0.00     0.819 C 
ATOM     21  N0C MOL     1      -8.306  -0.270  11.233  1.00  0.00    -0.993 N 
ATOM     22  H13 MOL     1      -8.982  -0.900  11.660  1.00  0.00     0.395 HD
ATOM     23  H14 MOL     1      -7.864  -0.451  10.351  1.00  0.00     0.440 HD
ATOM     24  O0D MOL     1      -7.308   1.678  11.462  1.00  0.00    -0.614 OA
ENDBRANCH  19  20
ENDBRANCH   4  19
BRANCH   1  25
ATOM     25  C01 MOL     1     -14.515   1.432  12.724  1.00  0.00    -0.066 C 
ATOM     26  C00 MOL     1     -14.914   1.148  11.196  1.00  0.00    -0.126 C 
ENDBRANCH   1  25
BRANCH   2  27
ATOM     27  C04 MOL     1     -12.488   3.710  12.084  1.00  0.00    -0.266 C 
BRANCH  27  28
ATOM     28  C05 MOL     1     -12.203   3.919  10.618  1.00  0.00     0.870 C 
ATOM     29  O06 MOL     1     -12.233   3.037   9.782  1.00  0.00    -0.820 OA
ATOM     30  O07 MOL     1     -11.994   5.115  10.220  1.00  0.00    -0.676 OA
ENDBRANCH  27  28
ENDBRANCH   2  27
TORSDOF 9
ENDMDL
MODEL 16
REMARK VINA RESULT:      -4.9     21.518     23.482
REMARK  9 active torsions:
REMARK  status: ('A' for Active; 'I' for Inactive)
REMARK    1  A    between atoms: C01_2  and  C02_3 
REMARK    2  A    between atoms: C03_4  and  C04_5 
REMARK    3  A    between atoms: C04_5  and  C05_6 
REMARK    4  A    between atoms: C09_10  and  C0A_11 
REMARK    5  A    between atoms: C0A_11  and  C0B_12 
REMARK       I    between atoms: C0B_12  and  N0C_13 
REMARK    6  A    between atoms: C0E_15  and  C0F_16 
REMARK    7  A    between atoms: C0F_16  and  C0G_17 
REMARK    8  A    between atoms: C0N_23  and  C0O_24 
REMARK    9  A    between atoms: C0O_24  and  N0P_25 
ROOT
ATOM      1  C02 MOL     1      -8.128   2.362  13.853  1.00  0.00    -0.044 C 
ATOM      2  C03 MOL     1      -8.157   1.545  12.715  1.00  0.00     0.129 C 
ATOM      3  C08 MOL     1      -9.034   0.392  12.603  1.00  0.00    -0.316 C 
ATOM      4  C09 MOL     1      -9.967   0.183  13.601  1.00  0.00     0.109 C 
ATOM      5  C0E MOL     1      -9.948   0.896  14.765  1.00  0.00    -0.064 C 
ATOM      6  C0N MOL     1      -9.115   2.037  14.853  1.00  0.00    -0.120 C 
ENDROOT
BRANCH   5   7
ATOM      7  C0F MOL     1     -10.931   0.533  15.866  1.00  0.00     0.047 C 
BRANCH   7   8
ATOM      8  C0G MOL     1     -10.528  -0.451  16.931  1.00  0.00     0.171 C 
ATOM      9  C0M MOL     1     -10.395  -1.827  16.649  1.00  0.00    -0.195 C 
ATOM     10  C0K MOL     1     -10.031  -2.748  17.666  1.00  0.00    -0.062 C 
ATOM     11  C0J MOL     1      -9.965  -2.371  19.010  1.00  0.00    -0.135 C 
ATOM     12  C0I MOL     1     -10.139  -0.978  19.268  1.00  0.00    -0.071 C 
ATOM     13  C0H MOL     1     -10.360  -0.095  18.232  1.00  0.00    -0.152 C 
ENDBRANCH   7   8
ENDBRANCH   5   7
BRANCH   6  14
ATOM     14  C0O MOL     1      -9.112   2.935  16.133  1.00  0.00     0.092 C 
BRANCH  14  15
ATOM     15  N0P MOL     1      -8.131   2.573  17.205  1.00  0.00    -0.153 N 
ATOM     16  H0Q MOL     1      -7.814   3.398  17.688  1.00  0.00     0.257 HD
ATOM     17  H0R MOL     1      -8.637   2.060  17.921  1.00  0.00     0.244 HD
ATOM     18  H0S MOL     1      -7.310   2.079  16.886  1.00  0.00     0.246 HD
ENDBRANCH  14  15
ENDBRANCH   6  14
BRANCH   4  19
ATOM     19  C0A MOL     1     -11.062  -0.864  13.290  1.00  0.00    -0.219 C 
BRANCH  19  20
ATOM     20  C0B MOL     1     -12.448  -0.271  12.875  1.00  0.00     0.819 C 
ATOM     21  N0C MOL     1     -12.468   0.961  12.470  1.00  0.00    -0.993 N 
ATOM     22  H13 MOL     1     -11.565   1.427  12.411  1.00  0.00     0.395 HD
ATOM     23  H14 MOL     1     -13.339   1.419  12.271  1.00  0.00     0.440 HD
ATOM     24  O0D MOL     1     -13.442  -0.974  12.855  1.00  0.00    -0.614 OA
ENDBRANCH  19  20
ENDBRANCH   4  19
BRANCH   1  25
ATOM     25  C01 MOL     1      -7.167   3.561  14.011  1.00  0.00    -0.066 C 
ATOM     26  C00 MOL     1      -7.760   4.900  13.356  1.00  0.00    -0.126 C 
ENDBRANCH   1  25
BRANCH   2  27
ATOM     27  C04 MOL     1      -7.227   1.675  11.530  1.00  0.00    -0.266 C 
BRANCH  27  28
ATOM     28  C05 MOL     1      -7.778   2.452  10.361  1.00  0.00     0.870 C 
ATOM     29  O06 MOL     1      -7.318   2.415   9.236  1.00  0.00    -0.820 OA
ATOM     30  O07 MOL     1      -8.844   3.130  10.550  1.00  0.00    -0.676 OA
ENDBRANCH  27  28
ENDBRANCH   2  27
TORSDOF 9
ENDMDL
MODEL 17
REMARK VINA RESULT:      -4.9     13.816     16.850
REMARK  9 active torsions:
REMARK  status: ('A' for Active; 'I' for Inactive)
REMARK    1  A    between atoms: C01_2  and  C02_3 
REMARK    2  A    between atoms: C03_4  and  C04_5 
REMARK    3  A    between atoms: C04_5  and  C05_6 
REMARK    4  A    between atoms: C09_10  and  C0A_11 
REMARK    5  A    between atoms: C0A_11  and  C0B_12 
REMARK       I    between atoms: C0B_12  and  N0C_13 
REMARK    6  A    between atoms: C0E_15  and  C0F_16 
REMARK    7  A    between atoms: C0F_16  and  C0G_17 
REMARK    8  A    between atoms: C0N_23  and  C0O_24 
REMARK    9  A    between atoms: C0O_24  and  N0P_25 
ROOT
ATOM      1  C02 MOL     1      -8.260  -6.537  -0.170  1.00  0.00    -0.044 C 
ATOM      2  C03 MOL     1      -9.563  -6.045  -0.329  1.00  0.00     0.129 C 
ATOM      3  C08 MOL     1      -9.849  -4.794  -1.011  1.00  0.00    -0.316 C 
ATOM      4  C09 MOL     1      -8.806  -4.144  -1.644  1.00  0.00     0.109 C 
ATOM      5  C0E MOL     1      -7.508  -4.529  -1.472  1.00  0.00    -0.064 C 
ATOM      6  C0N MOL     1      -7.240  -5.764  -0.835  1.00  0.00    -0.120 C 
ENDROOT
BRANCH   5   7
ATOM      7  C0F MOL     1      -6.404  -3.696  -2.104  1.00  0.00     0.047 C 
BRANCH   7   8
ATOM      8  C0G MOL     1      -5.870  -4.071  -3.460  1.00  0.00     0.171 C 
ATOM      9  C0M MOL     1      -6.575  -4.945  -4.312  1.00  0.00    -0.195 C 
ATOM     10  C0K MOL     1      -6.053  -5.306  -5.582  1.00  0.00    -0.062 C 
ATOM     11  C0J MOL     1      -4.754  -4.963  -5.967  1.00  0.00    -0.135 C 
ATOM     12  C0I MOL     1      -4.052  -4.106  -5.067  1.00  0.00    -0.071 C 
ATOM     13  C0H MOL     1      -4.648  -3.671  -3.902  1.00  0.00    -0.152 C 
ENDBRANCH   7   8
ENDBRANCH   5   7
BRANCH   6  14
ATOM     14  C0O MOL     1      -5.776  -6.292  -0.683  1.00  0.00     0.092 C 
BRANCH  14  15
ATOM     15  N0P MOL     1      -5.278  -7.211  -1.756  1.00  0.00    -0.153 N 
ATOM     16  H0Q MOL     1      -5.643  -8.140  -1.623  1.00  0.00     0.257 HD
ATOM     17  H0R MOL     1      -5.699  -6.913  -2.631  1.00  0.00     0.244 HD
ATOM     18  H0S MOL     1      -4.273  -7.291  -1.820  1.00  0.00     0.246 HD
ENDBRANCH  14  15
ENDBRANCH   6  14
BRANCH   4  19
ATOM     19  C0A MOL     1      -9.209  -2.996  -2.597  1.00  0.00    -0.219 C 
BRANCH  19  20
ATOM     20  C0B MOL     1     -10.149  -3.412  -3.776  1.00  0.00     0.819 C 
ATOM     21  N0C MOL     1     -11.100  -2.588  -4.095  1.00  0.00    -0.993 N 
ATOM     22  H13 MOL     1     -11.124  -1.713  -3.577  1.00  0.00     0.395 HD
ATOM     23  H14 MOL     1     -11.782  -2.840  -4.786  1.00  0.00     0.440 HD
ATOM     24  O0D MOL     1      -9.932  -4.426  -4.415  1.00  0.00    -0.614 OA
ENDBRANCH  19  20
ENDBRANCH   4  19
BRANCH   1  25
ATOM     25  C01 MOL     1      -7.933  -7.837   0.596  1.00  0.00    -0.066 C 
ATOM     26  C00 MOL     1      -7.718  -7.576   2.164  1.00  0.00    -0.126 C 
ENDBRANCH   1  25
BRANCH   2  27
ATOM     27  C04 MOL     1     -10.803  -6.668   0.271  1.00  0.00    -0.266 C 
BRANCH  27  28
ATOM     28  C05 MOL     1     -11.361  -5.958   1.479  1.00  0.00     0.870 C 
ATOM     29  O06 MOL     1     -10.813  -5.918   2.563  1.00  0.00    -0.820 OA
ATOM     30  O07 MOL     1     -12.441  -5.292   1.328  1.00  0.00    -0.676 OA
ENDBRANCH  27  28
ENDBRANCH   2  27
TORSDOF 9
ENDMDL
MODEL 18
REMARK VINA RESULT:      -4.9     17.355     19.993
REMARK  9 active torsions:
REMARK  status: ('A' for Active; 'I' for Inactive)
REMARK    1  A    between atoms: C01_2  and  C02_3 
REMARK    2  A    between atoms: C03_4  and  C04_5 
REMARK    3  A    between atoms: C04_5  and  C05_6 
REMARK    4  A    between atoms: C09_10  and  C0A_11 
REMARK    5  A    between atoms: C0A_11  and  C0B_12 
REMARK       I    between atoms: C0B_12  and  N0C_13 
REMARK    6  A    between atoms: C0E_15  and  C0F_16 
REMARK    7  A    between atoms: C0F_16  and  C0G_17 
REMARK    8  A    between atoms: C0N_23  and  C0O_24 
REMARK    9  A    between atoms: C0O_24  and  N0P_25 
ROOT
ATOM      1  C02 MOL     1     -11.818  24.866  -3.375  1.00  0.00    -0.044 C 
ATOM      2  C03 MOL     1     -10.651  24.504  -4.061  1.00  0.00     0.129 C 
ATOM      3  C08 MOL     1      -9.609  23.692  -3.457  1.00  0.00    -0.316 C 
ATOM      4  C09 MOL     1      -9.849  23.147  -2.210  1.00  0.00     0.109 C 
ATOM      5  C0E MOL     1     -10.928  23.513  -1.459  1.00  0.00    -0.064 C 
ATOM      6  C0N MOL     1     -11.954  24.276  -2.065  1.00  0.00    -0.120 C 
ENDROOT
BRANCH   5   7
ATOM      7  C0F MOL     1     -11.066  22.961  -0.049  1.00  0.00     0.047 C 
BRANCH   7   8
ATOM      8  C0G MOL     1     -10.414  23.682   1.100  1.00  0.00     0.171 C 
ATOM      9  C0M MOL     1     -10.452  25.088   1.204  1.00  0.00    -0.195 C 
ATOM     10  C0K MOL     1      -9.819  25.757   2.283  1.00  0.00    -0.062 C 
ATOM     11  C0J MOL     1      -8.988  25.082   3.181  1.00  0.00    -0.135 C 
ATOM     12  C0I MOL     1      -8.942  23.664   3.029  1.00  0.00    -0.071 C 
ATOM     13  C0H MOL     1      -9.679  23.038   2.046  1.00  0.00    -0.152 C 
ENDBRANCH   7   8
ENDBRANCH   5   7
BRANCH   6  14
ATOM     14  C0O MOL     1     -13.250  24.656  -1.277  1.00  0.00     0.092 C 
BRANCH  14  15
ATOM     15  N0P MOL     1     -14.389  23.686  -1.350  1.00  0.00    -0.153 N 
ATOM     16  H0Q MOL     1     -14.695  23.429  -0.426  1.00  0.00     0.257 HD
ATOM     17  H0R MOL     1     -15.188  24.182  -1.735  1.00  0.00     0.244 HD
ATOM     18  H0S MOL     1     -14.191  22.830  -1.848  1.00  0.00     0.246 HD
ENDBRANCH  14  15
ENDBRANCH   6  14
BRANCH   4  19
ATOM     19  C0A MOL     1      -8.851  22.059  -1.748  1.00  0.00    -0.219 C 
BRANCH  19  20
ATOM     20  C0B MOL     1      -7.567  22.596  -1.036  1.00  0.00     0.819 C 
ATOM     21  N0C MOL     1      -6.616  21.744  -0.807  1.00  0.00    -0.993 N 
ATOM     22  H13 MOL     1      -6.768  20.801  -1.156  1.00  0.00     0.395 HD
ATOM     23  H14 MOL     1      -5.806  22.012  -0.279  1.00  0.00     0.440 HD
ATOM     24  O0D MOL     1      -7.443  23.783  -0.791  1.00  0.00    -0.614 OA
ENDBRANCH  19  20
ENDBRANCH   4  19
BRANCH   1  25
ATOM     25  C01 MOL     1     -12.913  25.771  -3.982  1.00  0.00    -0.066 C 
ATOM     26  C00 MOL     1     -13.985  24.933  -4.831  1.00  0.00    -0.126 C 
ENDBRANCH   1  25
BRANCH   2  27
ATOM     27  C04 MOL     1     -10.273  24.989  -5.442  1.00  0.00    -0.266 C 
BRANCH  27  28
ATOM     28  C05 MOL     1     -10.444  23.980  -6.549  1.00  0.00     0.870 C 
ATOM     29  O06 MOL     1      -9.592  23.180  -6.885  1.00  0.00    -0.820 OA
ATOM     30  O07 MOL     1     -11.587  23.912  -7.116  1.00  0.00    -0.676 OA
ENDBRANCH  27  28
ENDBRANCH   2  27
TORSDOF 9
ENDMDL
MODEL 19
REMARK VINA RESULT:      -4.8     24.401     26.098
REMARK  9 active torsions:
REMARK  status: ('A' for Active; 'I' for Inactive)
REMARK    1  A    between atoms: C01_2  and  C02_3 
REMARK    2  A    between atoms: C03_4  and  C04_5 
REMARK    3  A    between atoms: C04_5  and  C05_6 
REMARK    4  A    between atoms: C09_10  and  C0A_11 
REMARK    5  A    between atoms: C0A_11  and  C0B_12 
REMARK       I    between atoms: C0B_12  and  N0C_13 
REMARK    6  A    between atoms: C0E_15  and  C0F_16 
REMARK    7  A    between atoms: C0F_16  and  C0G_17 
REMARK    8  A    between atoms: C0N_23  and  C0O_24 
REMARK    9  A    between atoms: C0O_24  and  N0P_25 
ROOT
ATOM      1  C02 MOL     1     -24.045   3.955 -13.570  1.00  0.00    -0.044 C 
ATOM      2  C03 MOL     1     -23.089   2.930 -13.603  1.00  0.00     0.129 C 
ATOM      3  C08 MOL     1     -22.531   2.343 -12.397  1.00  0.00    -0.316 C 
ATOM      4  C09 MOL     1     -23.069   2.717 -11.180  1.00  0.00     0.109 C 
ATOM      5  C0E MOL     1     -23.949   3.754 -11.071  1.00  0.00    -0.064 C 
ATOM      6  C0N MOL     1     -24.513   4.299 -12.250  1.00  0.00    -0.120 C 
ENDROOT
BRANCH   5   7
ATOM      7  C0F MOL     1     -24.410   4.186  -9.688  1.00  0.00     0.047 C 
BRANCH   7   8
ATOM      8  C0G MOL     1     -25.375   3.325  -8.921  1.00  0.00     0.171 C 
ATOM      9  C0M MOL     1     -25.141   2.976  -7.574  1.00  0.00    -0.195 C 
ATOM     10  C0K MOL     1     -26.050   2.148  -6.866  1.00  0.00    -0.062 C 
ATOM     11  C0J MOL     1     -27.109   1.500  -7.509  1.00  0.00    -0.135 C 
ATOM     12  C0I MOL     1     -27.299   1.846  -8.881  1.00  0.00    -0.071 C 
ATOM     13  C0H MOL     1     -26.469   2.759  -9.496  1.00  0.00    -0.152 C 
ENDBRANCH   7   8
ENDBRANCH   5   7
BRANCH   6  14
ATOM     14  C0O MOL     1     -25.585   5.435 -12.180  1.00  0.00     0.092 C 
BRANCH  14  15
ATOM     15  N0P MOL     1     -25.072   6.836 -12.056  1.00  0.00    -0.153 N 
ATOM     16  H0Q MOL     1     -24.065   6.846 -12.066  1.00  0.00     0.257 HD
ATOM     17  H0R MOL     1     -25.323   7.330 -12.907  1.00  0.00     0.244 HD
ATOM     18  H0S MOL     1     -25.367   7.329 -11.224  1.00  0.00     0.246 HD
ENDBRANCH  14  15
ENDBRANCH   6  14
BRANCH   4  19
ATOM     19  C0A MOL     1     -22.656   1.852  -9.967  1.00  0.00    -0.219 C 
BRANCH  19  20
ATOM     20  C0B MOL     1     -23.014   0.334 -10.082  1.00  0.00     0.819 C 
ATOM     21  N0C MOL     1     -24.273   0.019 -10.055  1.00  0.00    -0.993 N 
ATOM     22  H13 MOL     1     -24.927   0.796 -10.009  1.00  0.00     0.395 HD
ATOM     23  H14 MOL     1     -24.558  -0.943 -10.041  1.00  0.00     0.440 HD
ATOM     24  O0D MOL     1     -22.145  -0.496 -10.276  1.00  0.00    -0.614 OA
ENDBRANCH  19  20
ENDBRANCH   4  19
BRANCH   1  25
ATOM     25  C01 MOL     1     -24.611   4.626 -14.840  1.00  0.00    -0.066 C 
ATOM     26  C00 MOL     1     -25.816   3.784 -15.482  1.00  0.00    -0.126 C 
ENDBRANCH   1  25
BRANCH   2  27
ATOM     27  C04 MOL     1     -22.440   2.391 -14.857  1.00  0.00    -0.266 C 
BRANCH  27  28
ATOM     28  C05 MOL     1     -20.935   2.490 -14.898  1.00  0.00     0.870 C 
ATOM     29  O06 MOL     1     -20.182   1.549 -14.738  1.00  0.00    -0.820 OA
ATOM     30  O07 MOL     1     -20.425   3.622 -15.198  1.00  0.00    -0.676 OA
ENDBRANCH  27  28
ENDBRANCH   2  27
TORSDOF 9
ENDMDL
MODEL 20
REMARK VINA RESULT:      -4.8     12.853     16.191
REMARK  9 active torsions:
REMARK  status: ('A' for Active; 'I' for Inactive)
REMARK    1  A    between atoms: C01_2  and  C02_3 
REMARK    2  A    between atoms: C03_4  and  C04_5 
REMARK    3  A    between atoms: C04_5  and  C05_6 
REMARK    4  A    between atoms: C09_10  and  C0A_11 
REMARK    5  A    between atoms: C0A_11  and  C0B_12 
REMARK       I    between atoms: C0B_12  and  N0C_13 
REMARK    6  A    between atoms: C0E_15  and  C0F_16 
REMARK    7  A    between atoms: C0F_16  and  C0G_17 
REMARK    8  A    between atoms: C0N_23  and  C0O_24 
REMARK    9  A    between atoms: C0O_24  and  N0P_25 
ROOT
ATOM      1  C02 MOL     1       1.923   6.573 -21.744  1.00  0.00    -0.044 C 
ATOM      2  C03 MOL     1       2.351   5.561 -20.873  1.00  0.00     0.129 C 
ATOM      3  C08 MOL     1       1.719   5.316 -19.588  1.00  0.00    -0.316 C 
ATOM      4  C09 MOL     1       0.569   6.019 -19.283  1.00  0.00     0.109 C 
ATOM      5  C0E MOL     1       0.138   7.063 -20.050  1.00  0.00    -0.064 C 
ATOM      6  C0N MOL     1       0.738   7.274 -21.315  1.00  0.00    -0.120 C 
ENDROOT
BRANCH   5   7
ATOM      7  C0F MOL     1      -1.069   7.865 -19.590  1.00  0.00     0.047 C 
BRANCH   7   8
ATOM      8  C0G MOL     1      -2.427   7.563 -20.163  1.00  0.00     0.171 C 
ATOM      9  C0M MOL     1      -3.267   8.588 -20.645  1.00  0.00    -0.195 C 
ATOM     10  C0K MOL     1      -4.553   8.292 -21.166  1.00  0.00    -0.062 C 
ATOM     11  C0J MOL     1      -5.113   7.016 -21.062  1.00  0.00    -0.135 C 
ATOM     12  C0I MOL     1      -4.251   6.007 -20.537  1.00  0.00    -0.071 C 
ATOM     13  C0H MOL     1      -2.959   6.312 -20.164  1.00  0.00    -0.152 C 
ENDBRANCH   7   8
ENDBRANCH   5   7
BRANCH   6  14
ATOM     14  C0O MOL     1       0.231   8.405 -22.269  1.00  0.00     0.092 C 
BRANCH  14  15
ATOM     15  N0P MOL     1      -0.806   8.017 -23.278  1.00  0.00    -0.153 N 
ATOM     16  H0Q MOL     1      -1.197   8.835 -23.716  1.00  0.00     0.257 HD
ATOM     17  H0R MOL     1      -0.329   7.545 -24.040  1.00  0.00     0.244 HD
ATOM     18  H0S MOL     1      -1.578   7.476 -22.913  1.00  0.00     0.246 HD
ENDBRANCH  14  15
ENDBRANCH   6  14
BRANCH   4  19
ATOM     19  C0A MOL     1      -0.224   5.512 -18.057  1.00  0.00    -0.219 C 
BRANCH  19  20
ATOM     20  C0B MOL     1       0.400   5.871 -16.669  1.00  0.00     0.819 C 
ATOM     21  N0C MOL     1       0.102   7.030 -16.167  1.00  0.00    -0.993 N 
ATOM     22  H13 MOL     1      -0.556   7.592 -16.702  1.00  0.00     0.395 HD
ATOM     23  H14 MOL     1       0.538   7.347 -15.321  1.00  0.00     0.440 HD
ATOM     24  O0D MOL     1       1.064   5.054 -16.056  1.00  0.00    -0.614 OA
ENDBRANCH  19  20
ENDBRANCH   4  19
BRANCH   1  25
ATOM     25  C01 MOL     1       2.614   6.881 -23.090  1.00  0.00    -0.066 C 
ATOM     26  C00 MOL     1       2.012   6.006 -24.292  1.00  0.00    -0.126 C 
ENDBRANCH   1  25
BRANCH   2  27
ATOM     27  C04 MOL     1       3.566   4.688 -21.091  1.00  0.00    -0.266 C 
BRANCH  27  28
ATOM     28  C05 MOL     1       3.373   3.545 -22.056  1.00  0.00     0.870 C 
ATOM     29  O06 MOL     1       2.432   2.775 -22.027  1.00  0.00    -0.820 OA
ATOM     30  O07 MOL     1       4.213   3.428 -23.012  1.00  0.00    -0.676 OA
ENDBRANCH  27  28
ENDBRANCH   2  27
TORSDOF 9
ENDMDL
