MODEL 1
REMARK VINA RESULT:      -6.4      0.000      0.000
REMARK  9 active torsions:
REMARK  status: ('A' for Active; 'I' for Inactive)
REMARK    1  A    between atoms: C01_2  and  C02_3 
REMARK    2  A    between atoms: C03_4  and  C04_5 
REMARK    3  A    between atoms: C04_5  and  C05_6 
REMARK    4  A    between atoms: C09_10  and  C0A_11 
REMARK    5  A    between atoms: C0A_11  and  C0B_12 
REMARK       I    between atoms: C0B_12  and  N0C_13 
REMARK    6  A    between atoms: C0E_15  and  C0F_16 
REMARK    7  A    between atoms: C0F_16  and  C0G_17 
REMARK    8  A    between atoms: C0N_23  and  C0O_24 
REMARK    9  A    between atoms: C0O_24  and  N0P_25 
ROOT
ATOM      1  C02 MOL     1       1.844   7.500  -6.550  1.00  0.00    -0.044 C 
ATOM      2  C03 MOL     1       1.245   6.357  -6.001  1.00  0.00     0.129 C 
ATOM      3  C08 MOL     1       0.229   6.428  -4.965  1.00  0.00    -0.316 C 
ATOM      4  C09 MOL     1      -0.258   7.673  -4.614  1.00  0.00     0.109 C 
ATOM      5  C0E MOL     1       0.325   8.825  -5.056  1.00  0.00    -0.064 C 
ATOM      6  C0N MOL     1       1.291   8.750  -6.089  1.00  0.00    -0.120 C 
ENDROOT
BRANCH   5   7
ATOM      7  C0F MOL     1      -0.190  10.158  -4.536  1.00  0.00     0.047 C 
BRANCH   7   8
ATOM      8  C0G MOL     1       0.408  10.754  -3.291  1.00  0.00     0.171 C 
ATOM      9  C0M MOL     1      -0.402  11.216  -2.234  1.00  0.00    -0.195 C 
ATOM     10  C0K MOL     1       0.174  11.792  -1.072  1.00  0.00    -0.062 C 
ATOM     11  C0J MOL     1       1.537  12.091  -0.997  1.00  0.00    -0.135 C 
ATOM     12  C0I MOL     1       2.326  11.643  -2.099  1.00  0.00    -0.071 C 
ATOM     13  C0H MOL     1       1.744  10.967  -3.150  1.00  0.00    -0.152 C 
ENDBRANCH   7   8
ENDBRANCH   5   7
BRANCH   6  14
ATOM     14  C0O MOL     1       1.933  10.043  -6.688  1.00  0.00     0.092 C 
BRANCH  14  15
ATOM     15  N0P MOL     1       1.227  10.664  -7.854  1.00  0.00    -0.153 N 
ATOM     16  H0Q MOL     1       1.398  10.135  -8.694  1.00  0.00     0.257 HD
ATOM     17  H0R MOL     1       0.229  10.552  -7.702  1.00  0.00     0.244 HD
ATOM     18  H0S MOL     1       1.481  11.623  -8.049  1.00  0.00     0.246 HD
ENDBRANCH  14  15
ENDBRANCH   6  14
BRANCH   4  19
ATOM     19  C0A MOL     1      -1.533   7.674  -3.740  1.00  0.00    -0.219 C 
BRANCH  19  20
ATOM     20  C0B MOL     1      -2.855   7.312  -4.494  1.00  0.00     0.819 C 
ATOM     21  N0C MOL     1      -2.992   7.768  -5.701  1.00  0.00    -0.993 N 
ATOM     22  H13 MOL     1      -2.201   8.287  -6.075  1.00  0.00     0.395 HD
ATOM     23  H14 MOL     1      -3.853   7.638  -6.200  1.00  0.00     0.440 HD
ATOM     24  O0D MOL     1      -3.671   6.561  -3.990  1.00  0.00    -0.614 OA
ENDBRANCH  19  20
ENDBRANCH   4  19
BRANCH   1  25
ATOM     25  C01 MOL     1       2.961   7.443  -7.615  1.00  0.00    -0.066 C 
ATOM     26  C00 MOL     1       2.373   7.435  -9.107  1.00  0.00    -0.126 C 
ENDBRANCH   1  25
BRANCH   2  27
ATOM     27  C04 MOL     1       1.645   4.934  -6.317  1.00  0.00    -0.266 C 
BRANCH  27  28
ATOM     28  C05 MOL     1       0.743   4.211  -7.285  1.00  0.00     0.870 C 
ATOM     29  O06 MOL     1      -0.228   3.557  -6.959  1.00  0.00    -0.820 OA
ATOM     30  O07 MOL     1       0.972   4.362  -8.533  1.00  0.00    -0.676 OA
ENDBRANCH  27  28
ENDBRANCH   2  27
TORSDOF 9
ENDMDL
MODEL 2
REMARK VINA RESULT:      -5.9      2.090      3.051
REMARK  9 active torsions:
REMARK  status: ('A' for Active; 'I' for Inactive)
REMARK    1  A    between atoms: C01_2  and  C02_3 
REMARK    2  A    between atoms: C03_4  and  C04_5 
REMARK    3  A    between atoms: C04_5  and  C05_6 
REMARK    4  A    between atoms: C09_10  and  C0A_11 
REMARK    5  A    between atoms: C0A_11  and  C0B_12 
REMARK       I    between atoms: C0B_12  and  N0C_13 
REMARK    6  A    between atoms: C0E_15  and  C0F_16 
REMARK    7  A    between atoms: C0F_16  and  C0G_17 
REMARK    8  A    between atoms: C0N_23  and  C0O_24 
REMARK    9  A    between atoms: C0O_24  and  N0P_25 
ROOT
ATOM      1  C02 MOL     1       1.840   6.535  -5.633  1.00  0.00    -0.044 C 
ATOM      2  C03 MOL     1       1.166   6.243  -4.439  1.00  0.00     0.129 C 
ATOM      3  C08 MOL     1       0.655   7.277  -3.557  1.00  0.00    -0.316 C 
ATOM      4  C09 MOL     1       0.717   8.590  -3.985  1.00  0.00     0.109 C 
ATOM      5  C0E MOL     1       1.419   8.950  -5.099  1.00  0.00    -0.064 C 
ATOM      6  C0N MOL     1       1.885   7.937  -5.971  1.00  0.00    -0.120 C 
ENDROOT
BRANCH   5   7
ATOM      7  C0F MOL     1       1.542  10.426  -5.445  1.00  0.00     0.047 C 
BRANCH   7   8
ATOM      8  C0G MOL     1       2.716  11.216  -4.933  1.00  0.00     0.171 C 
ATOM      9  C0M MOL     1       3.712  11.703  -5.804  1.00  0.00    -0.195 C 
ATOM     10  C0K MOL     1       4.823  12.432  -5.307  1.00  0.00    -0.062 C 
ATOM     11  C0J MOL     1       5.075  12.545  -3.937  1.00  0.00    -0.135 C 
ATOM     12  C0I MOL     1       4.066  12.011  -3.080  1.00  0.00    -0.071 C 
ATOM     13  C0H MOL     1       2.934  11.426  -3.608  1.00  0.00    -0.152 C 
ENDBRANCH   7   8
ENDBRANCH   5   7
BRANCH   6  14
ATOM     14  C0O MOL     1       2.624   8.295  -7.301  1.00  0.00     0.092 C 
BRANCH  14  15
ATOM     15  N0P MOL     1       1.767   8.499  -8.512  1.00  0.00    -0.153 N 
ATOM     16  H0Q MOL     1       2.266   9.019  -9.215  1.00  0.00     0.257 HD
ATOM     17  H0R MOL     1       1.627   7.590  -8.943  1.00  0.00     0.244 HD
ATOM     18  H0S MOL     1       0.896   8.983  -8.344  1.00  0.00     0.246 HD
ENDBRANCH  14  15
ENDBRANCH   6  14
BRANCH   4  19
ATOM     19  C0A MOL     1      -0.102   9.607  -3.158  1.00  0.00    -0.219 C 
BRANCH  19  20
ATOM     20  C0B MOL     1      -1.643   9.591  -3.423  1.00  0.00     0.819 C 
ATOM     21  N0C MOL     1      -2.033   9.317  -4.630  1.00  0.00    -0.993 N 
ATOM     22  H13 MOL     1      -1.299   9.087  -5.296  1.00  0.00     0.395 HD
ATOM     23  H14 MOL     1      -3.004   9.374  -4.878  1.00  0.00     0.440 HD
ATOM     24  O0D MOL     1      -2.432   9.744  -2.509  1.00  0.00    -0.614 OA
ENDBRANCH  19  20
ENDBRANCH   4  19
BRANCH   1  25
ATOM     25  C01 MOL     1       2.435   5.451  -6.558  1.00  0.00    -0.066 C 
ATOM     26  C00 MOL     1       1.338   4.843  -7.558  1.00  0.00    -0.126 C 
ENDBRANCH   1  25
BRANCH   2  27
ATOM     27  C04 MOL     1       0.985   4.857  -3.864  1.00  0.00    -0.266 C 
BRANCH  27  28
ATOM     28  C05 MOL     1      -0.368   4.234  -4.097  1.00  0.00     0.870 C 
ATOM     29  O06 MOL     1      -0.591   3.365  -4.918  1.00  0.00    -0.820 OA
ATOM     30  O07 MOL     1      -1.323   4.589  -3.326  1.00  0.00    -0.676 OA
ENDBRANCH  27  28
ENDBRANCH   2  27
TORSDOF 9
ENDMDL
MODEL 3
REMARK VINA RESULT:      -5.9      3.481      7.022
REMARK  9 active torsions:
REMARK  status: ('A' for Active; 'I' for Inactive)
REMARK    1  A    between atoms: C01_2  and  C02_3 
REMARK    2  A    between atoms: C03_4  and  C04_5 
REMARK    3  A    between atoms: C04_5  and  C05_6 
REMARK    4  A    between atoms: C09_10  and  C0A_11 
REMARK    5  A    between atoms: C0A_11  and  C0B_12 
REMARK       I    between atoms: C0B_12  and  N0C_13 
REMARK    6  A    between atoms: C0E_15  and  C0F_16 
REMARK    7  A    between atoms: C0F_16  and  C0G_17 
REMARK    8  A    between atoms: C0N_23  and  C0O_24 
REMARK    9  A    between atoms: C0O_24  and  N0P_25 
ROOT
ATOM      1  C02 MOL     1       2.196  10.244  -0.959  1.00  0.00    -0.044 C 
ATOM      2  C03 MOL     1       0.985  10.946  -0.904  1.00  0.00     0.129 C 
ATOM      3  C08 MOL     1       0.086  11.046  -2.041  1.00  0.00    -0.316 C 
ATOM      4  C09 MOL     1       0.378  10.304  -3.170  1.00  0.00     0.109 C 
ATOM      5  C0E MOL     1       1.570   9.656  -3.317  1.00  0.00    -0.064 C 
ATOM      6  C0N MOL     1       2.425   9.535  -2.195  1.00  0.00    -0.120 C 
ENDROOT
BRANCH   5   7
ATOM      7  C0F MOL     1       1.870   8.956  -4.633  1.00  0.00     0.047 C 
BRANCH   7   8
ATOM      8  C0G MOL     1       1.443   7.527  -4.832  1.00  0.00     0.171 C 
ATOM      9  C0M MOL     1       1.359   6.957  -6.119  1.00  0.00    -0.195 C 
ATOM     10  C0K MOL     1       0.937   5.613  -6.295  1.00  0.00    -0.062 C 
ATOM     11  C0J MOL     1       0.421   4.859  -5.238  1.00  0.00    -0.135 C 
ATOM     12  C0I MOL     1       0.486   5.477  -3.953  1.00  0.00    -0.071 C 
ATOM     13  C0H MOL     1       1.027   6.737  -3.806  1.00  0.00    -0.152 C 
ENDBRANCH   7   8
ENDBRANCH   5   7
BRANCH   6  14
ATOM     14  C0O MOL     1       3.765   8.735  -2.285  1.00  0.00     0.092 C 
BRANCH  14  15
ATOM     15  N0P MOL     1       3.729   7.310  -1.825  1.00  0.00    -0.153 N 
ATOM     16  H0Q MOL     1       2.822   6.907  -1.992  1.00  0.00     0.257 HD
ATOM     17  H0R MOL     1       4.342   6.777  -2.434  1.00  0.00     0.244 HD
ATOM     18  H0S MOL     1       3.943   7.170  -0.847  1.00  0.00     0.246 HD
ENDBRANCH  14  15
ENDBRANCH   6  14
BRANCH   4  19
ATOM     19  C0A MOL     1      -0.751  10.208  -4.223  1.00  0.00    -0.219 C 
BRANCH  19  20
ATOM     20  C0B MOL     1      -1.711   8.986  -4.057  1.00  0.00     0.819 C 
ATOM     21  N0C MOL     1      -2.053   8.350  -5.135  1.00  0.00    -0.993 N 
ATOM     22  H13 MOL     1      -1.624   8.675  -5.999  1.00  0.00     0.395 HD
ATOM     23  H14 MOL     1      -2.731   7.612  -5.099  1.00  0.00     0.440 HD
ATOM     24  O0D MOL     1      -2.046   8.605  -2.950  1.00  0.00    -0.614 OA
ENDBRANCH  19  20
ENDBRANCH   4  19
BRANCH   1  25
ATOM     25  C01 MOL     1       3.188  10.169   0.222  1.00  0.00    -0.066 C 
ATOM     26  C00 MOL     1       4.309  11.313   0.142  1.00  0.00    -0.126 C 
ENDBRANCH   1  25
BRANCH   2  27
ATOM     27  C04 MOL     1       0.514  11.770   0.273  1.00  0.00    -0.266 C 
BRANCH  27  28
ATOM     28  C05 MOL     1       0.738  13.256   0.150  1.00  0.00     0.870 C 
ATOM     29  O06 MOL     1       1.827  13.775  -0.004  1.00  0.00    -0.820 OA
ATOM     30  O07 MOL     1      -0.293  14.010   0.129  1.00  0.00    -0.676 OA
ENDBRANCH  27  28
ENDBRANCH   2  27
TORSDOF 9
ENDMDL
MODEL 4
REMARK VINA RESULT:      -5.8      3.448      6.810
REMARK  9 active torsions:
REMARK  status: ('A' for Active; 'I' for Inactive)
REMARK    1  A    between atoms: C01_2  and  C02_3 
REMARK    2  A    between atoms: C03_4  and  C04_5 
REMARK    3  A    between atoms: C04_5  and  C05_6 
REMARK    4  A    between atoms: C09_10  and  C0A_11 
REMARK    5  A    between atoms: C0A_11  and  C0B_12 
REMARK       I    between atoms: C0B_12  and  N0C_13 
REMARK    6  A    between atoms: C0E_15  and  C0F_16 
REMARK    7  A    between atoms: C0F_16  and  C0G_17 
REMARK    8  A    between atoms: C0N_23  and  C0O_24 
REMARK    9  A    between atoms: C0O_24  and  N0P_25 
ROOT
ATOM      1  C02 MOL     1       0.882  11.018  -2.432  1.00  0.00    -0.044 C 
ATOM      2  C03 MOL     1       2.180  11.157  -2.942  1.00  0.00     0.129 C 
ATOM      3  C08 MOL     1       2.658  10.394  -4.083  1.00  0.00    -0.316 C 
ATOM      4  C09 MOL     1       1.750   9.609  -4.768  1.00  0.00     0.109 C 
ATOM      5  C0E MOL     1       0.494   9.374  -4.288  1.00  0.00    -0.064 C 
ATOM      6  C0N MOL     1       0.025  10.145  -3.197  1.00  0.00    -0.120 C 
ENDROOT
BRANCH   5   7
ATOM      7  C0F MOL     1      -0.410   8.406  -5.034  1.00  0.00     0.047 C 
BRANCH   7   8
ATOM      8  C0G MOL     1      -0.427   6.952  -4.647  1.00  0.00     0.171 C 
ATOM      9  C0M MOL     1      -1.440   6.422  -3.822  1.00  0.00    -0.195 C 
ATOM     10  C0K MOL     1      -1.436   5.053  -3.449  1.00  0.00    -0.062 C 
ATOM     11  C0J MOL     1      -0.349   4.219  -3.725  1.00  0.00    -0.135 C 
ATOM     12  C0I MOL     1       0.678   4.795  -4.532  1.00  0.00    -0.071 C 
ATOM     13  C0H MOL     1       0.571   6.092  -4.985  1.00  0.00    -0.152 C 
ENDBRANCH   7   8
ENDBRANCH   5   7
BRANCH   6  14
ATOM     14  C0O MOL     1      -1.433   9.974  -2.657  1.00  0.00     0.092 C 
BRANCH  14  15
ATOM     15  N0P MOL     1      -2.507  10.735  -3.372  1.00  0.00    -0.153 N 
ATOM     16  H0Q MOL     1      -3.414  10.493  -3.008  1.00  0.00     0.257 HD
ATOM     17  H0R MOL     1      -2.404  11.714  -3.123  1.00  0.00     0.244 HD
ATOM     18  H0S MOL     1      -2.539  10.594  -4.372  1.00  0.00     0.246 HD
ENDBRANCH  14  15
ENDBRANCH   6  14
BRANCH   4  19
ATOM     19  C0A MOL     1       2.229   9.064  -6.134  1.00  0.00    -0.219 C 
BRANCH  19  20
ATOM     20  C0B MOL     1       2.310  10.125  -7.279  1.00  0.00     0.819 C 
ATOM     21  N0C MOL     1       1.196  10.465  -7.852  1.00  0.00    -0.993 N 
ATOM     22  H13 MOL     1       0.352  10.045  -7.470  1.00  0.00     0.395 HD
ATOM     23  H14 MOL     1       1.198  11.077  -8.647  1.00  0.00     0.440 HD
ATOM     24  O0D MOL     1       3.368  10.663  -7.553  1.00  0.00    -0.614 OA
ENDBRANCH  19  20
ENDBRANCH   4  19
BRANCH   1  25
ATOM     25  C01 MOL     1       0.372  11.781  -1.190  1.00  0.00    -0.066 C 
ATOM     26  C00 MOL     1       0.659  10.981   0.170  1.00  0.00    -0.126 C 
ENDBRANCH   1  25
BRANCH   2  27
ATOM     27  C04 MOL     1       3.266  12.007  -2.324  1.00  0.00    -0.266 C 
BRANCH  27  28
ATOM     28  C05 MOL     1       4.329  11.248  -1.571  1.00  0.00     0.870 C 
ATOM     29  O06 MOL     1       5.506  11.548  -1.557  1.00  0.00    -0.820 OA
ATOM     30  O07 MOL     1       3.951  10.272  -0.837  1.00  0.00    -0.676 OA
ENDBRANCH  27  28
ENDBRANCH   2  27
TORSDOF 9
ENDMDL
MODEL 5
REMARK VINA RESULT:      -5.8      3.381      6.565
REMARK  9 active torsions:
REMARK  status: ('A' for Active; 'I' for Inactive)
REMARK    1  A    between atoms: C01_2  and  C02_3 
REMARK    2  A    between atoms: C03_4  and  C04_5 
REMARK    3  A    between atoms: C04_5  and  C05_6 
REMARK    4  A    between atoms: C09_10  and  C0A_11 
REMARK    5  A    between atoms: C0A_11  and  C0B_12 
REMARK       I    between atoms: C0B_12  and  N0C_13 
REMARK    6  A    between atoms: C0E_15  and  C0F_16 
REMARK    7  A    between atoms: C0F_16  and  C0G_17 
REMARK    8  A    between atoms: C0N_23  and  C0O_24 
REMARK    9  A    between atoms: C0O_24  and  N0P_25 
ROOT
ATOM      1  C02 MOL     1       2.881   8.802  -3.330  1.00  0.00    -0.044 C 
ATOM      2  C03 MOL     1       1.700   9.541  -3.177  1.00  0.00     0.129 C 
ATOM      3  C08 MOL     1       0.385   8.926  -3.201  1.00  0.00    -0.316 C 
ATOM      4  C09 MOL     1       0.310   7.547  -3.237  1.00  0.00     0.109 C 
ATOM      5  C0E MOL     1       1.413   6.772  -3.456  1.00  0.00    -0.064 C 
ATOM      6  C0N MOL     1       2.693   7.374  -3.398  1.00  0.00    -0.120 C 
ENDROOT
BRANCH   5   7
ATOM      7  C0F MOL     1       1.239   5.268  -3.600  1.00  0.00     0.047 C 
BRANCH   7   8
ATOM      8  C0G MOL     1       0.950   4.678  -4.953  1.00  0.00     0.171 C 
ATOM      9  C0M MOL     1      -0.124   3.786  -5.153  1.00  0.00    -0.195 C 
ATOM     10  C0K MOL     1      -0.376   3.222  -6.431  1.00  0.00    -0.062 C 
ATOM     11  C0J MOL     1       0.519   3.377  -7.493  1.00  0.00    -0.135 C 
ATOM     12  C0I MOL     1       1.616   4.258  -7.249  1.00  0.00    -0.071 C 
ATOM     13  C0H MOL     1       1.750   4.891  -6.032  1.00  0.00    -0.152 C 
ENDBRANCH   7   8
ENDBRANCH   5   7
BRANCH   6  14
ATOM     14  C0O MOL     1       3.993   6.520  -3.562  1.00  0.00     0.092 C 
BRANCH  14  15
ATOM     15  N0P MOL     1       4.538   5.882  -2.321  1.00  0.00    -0.153 N 
ATOM     16  H0Q MOL     1       4.727   4.906  -2.480  1.00  0.00     0.257 HD
ATOM     17  H0R MOL     1       5.457   6.279  -2.153  1.00  0.00     0.244 HD
ATOM     18  H0S MOL     1       3.939   5.943  -1.510  1.00  0.00     0.246 HD
ENDBRANCH  14  15
ENDBRANCH   6  14
BRANCH   4  19
ATOM     19  C0A MOL     1      -1.084   6.941  -2.958  1.00  0.00    -0.219 C 
BRANCH  19  20
ATOM     20  C0B MOL     1      -2.095   7.024  -4.148  1.00  0.00     0.819 C 
ATOM     21  N0C MOL     1      -1.600   7.222  -5.332  1.00  0.00    -0.993 N 
ATOM     22  H13 MOL     1      -0.585   7.258  -5.392  1.00  0.00     0.395 HD
ATOM     23  H14 MOL     1      -2.205   7.367  -6.119  1.00  0.00     0.440 HD
ATOM     24  O0D MOL     1      -3.282   6.823  -3.970  1.00  0.00    -0.614 OA
ENDBRANCH  19  20
ENDBRANCH   4  19
BRANCH   1  25
ATOM     25  C01 MOL     1       4.286   9.444  -3.359  1.00  0.00    -0.066 C 
ATOM     26  C00 MOL     1       4.905   9.608  -1.888  1.00  0.00    -0.126 C 
ENDBRANCH   1  25
BRANCH   2  27
ATOM     27  C04 MOL     1       1.628  11.049  -3.086  1.00  0.00    -0.266 C 
BRANCH  27  28
ATOM     28  C05 MOL     1       1.841  11.622  -1.708  1.00  0.00     0.870 C 
ATOM     29  O06 MOL     1       1.282  11.221  -0.705  1.00  0.00    -0.820 OA
ATOM     30  O07 MOL     1       2.725  12.535  -1.577  1.00  0.00    -0.676 OA
ENDBRANCH  27  28
ENDBRANCH   2  27
TORSDOF 9
ENDMDL
MODEL 6
REMARK VINA RESULT:      -5.7      4.036      7.469
REMARK  9 active torsions:
REMARK  status: ('A' for Active; 'I' for Inactive)
REMARK    1  A    between atoms: C01_2  and  C02_3 
REMARK    2  A    between atoms: C03_4  and  C04_5 
REMARK    3  A    between atoms: C04_5  and  C05_6 
REMARK    4  A    between atoms: C09_10  and  C0A_11 
REMARK    5  A    between atoms: C0A_11  and  C0B_12 
REMARK       I    between atoms: C0B_12  and  N0C_13 
REMARK    6  A    between atoms: C0E_15  and  C0F_16 
REMARK    7  A    between atoms: C0F_16  and  C0G_17 
REMARK    8  A    between atoms: C0N_23  and  C0O_24 
REMARK    9  A    between atoms: C0O_24  and  N0P_25 
ROOT
ATOM      1  C02 MOL     1       2.423  11.640  -0.211  1.00  0.00    -0.044 C 
ATOM      2  C03 MOL     1       1.226  12.350  -0.042  1.00  0.00     0.129 C 
ATOM      3  C08 MOL     1       0.157  12.327  -1.025  1.00  0.00    -0.316 C 
ATOM      4  C09 MOL     1       0.276  11.461  -2.096  1.00  0.00     0.109 C 
ATOM      5  C0E MOL     1       1.438  10.795  -2.358  1.00  0.00    -0.064 C 
ATOM      6  C0N MOL     1       2.461  10.796  -1.380  1.00  0.00    -0.120 C 
ENDROOT
BRANCH   5   7
ATOM      7  C0F MOL     1       1.534   9.951  -3.619  1.00  0.00     0.047 C 
BRANCH   7   8
ATOM      8  C0G MOL     1       1.910  10.599  -4.924  1.00  0.00     0.171 C 
ATOM      9  C0M MOL     1       3.177  11.188  -5.114  1.00  0.00    -0.195 C 
ATOM     10  C0K MOL     1       3.514  11.812  -6.344  1.00  0.00    -0.062 C 
ATOM     11  C0J MOL     1       2.562  12.030  -7.343  1.00  0.00    -0.135 C 
ATOM     12  C0I MOL     1       1.278  11.453  -7.106  1.00  0.00    -0.071 C 
ATOM     13  C0H MOL     1       1.032  10.738  -5.952  1.00  0.00    -0.152 C 
ENDBRANCH   7   8
ENDBRANCH   5   7
BRANCH   6  14
ATOM     14  C0O MOL     1       3.781   9.985  -1.593  1.00  0.00     0.092 C 
BRANCH  14  15
ATOM     15  N0P MOL     1       3.773   8.559  -1.135  1.00  0.00    -0.153 N 
ATOM     16  H0Q MOL     1       3.986   7.940  -1.901  1.00  0.00     0.257 HD
ATOM     17  H0R MOL     1       4.561   8.437  -0.506  1.00  0.00     0.244 HD
ATOM     18  H0S MOL     1       2.904   8.244  -0.728  1.00  0.00     0.246 HD
ENDBRANCH  14  15
ENDBRANCH   6  14
BRANCH   4  19
ATOM     19  C0A MOL     1      -1.004  11.254  -2.938  1.00  0.00    -0.219 C 
BRANCH  19  20
ATOM     20  C0B MOL     1      -1.706   9.870  -2.750  1.00  0.00     0.819 C 
ATOM     21  N0C MOL     1      -1.975   9.190  -3.822  1.00  0.00    -0.993 N 
ATOM     22  H13 MOL     1      -1.661   9.599  -4.699  1.00  0.00     0.395 HD
ATOM     23  H14 MOL     1      -2.499   8.336  -3.767  1.00  0.00     0.440 HD
ATOM     24  O0D MOL     1      -1.907   9.422  -1.635  1.00  0.00    -0.614 OA
ENDBRANCH  19  20
ENDBRANCH   4  19
BRANCH   1  25
ATOM     25  C01 MOL     1       3.590  11.693   0.798  1.00  0.00    -0.066 C 
ATOM     26  C00 MOL     1       3.389  10.660   2.009  1.00  0.00    -0.126 C 
ENDBRANCH   1  25
BRANCH   2  27
ATOM     27  C04 MOL     1       0.938  13.303   1.096  1.00  0.00    -0.266 C 
BRANCH  27  28
ATOM     28  C05 MOL     1      -0.091  12.826   2.090  1.00  0.00     0.870 C 
ATOM     29  O06 MOL     1      -0.990  13.517   2.529  1.00  0.00    -0.820 OA
ATOM     30  O07 MOL     1      -0.059  11.595   2.431  1.00  0.00    -0.676 OA
ENDBRANCH  27  28
ENDBRANCH   2  27
TORSDOF 9
ENDMDL
MODEL 7
REMARK VINA RESULT:      -5.6     12.983     16.387
REMARK  9 active torsions:
REMARK  status: ('A' for Active; 'I' for Inactive)
REMARK    1  A    between atoms: C01_2  and  C02_3 
REMARK    2  A    between atoms: C03_4  and  C04_5 
REMARK    3  A    between atoms: C04_5  and  C05_6 
REMARK    4  A    between atoms: C09_10  and  C0A_11 
REMARK    5  A    between atoms: C0A_11  and  C0B_12 
REMARK       I    between atoms: C0B_12  and  N0C_13 
REMARK    6  A    between atoms: C0E_15  and  C0F_16 
REMARK    7  A    between atoms: C0F_16  and  C0G_17 
REMARK    8  A    between atoms: C0N_23  and  C0O_24 
REMARK    9  A    between atoms: C0O_24  and  N0P_25 
ROOT
ATOM      1  C02 MOL     1      -4.246   7.417 -20.364  1.00  0.00    -0.044 C 
ATOM      2  C03 MOL     1      -3.806   6.247 -19.729  1.00  0.00     0.129 C 
ATOM      3  C08 MOL     1      -2.403   5.986 -19.458  1.00  0.00    -0.316 C 
ATOM      4  C09 MOL     1      -1.491   6.993 -19.713  1.00  0.00     0.109 C 
ATOM      5  C0E MOL     1      -1.840   8.125 -20.391  1.00  0.00    -0.064 C 
ATOM      6  C0N MOL     1      -3.211   8.388 -20.622  1.00  0.00    -0.120 C 
ENDROOT
BRANCH   5   7
ATOM      7  C0F MOL     1      -0.760   9.137 -20.739  1.00  0.00     0.047 C 
BRANCH   7   8
ATOM      8  C0G MOL     1      -0.017   9.016 -22.042  1.00  0.00     0.171 C 
ATOM      9  C0M MOL     1      -0.432   8.116 -23.045  1.00  0.00    -0.195 C 
ATOM     10  C0K MOL     1       0.288   7.999 -24.263  1.00  0.00    -0.062 C 
ATOM     11  C0J MOL     1       1.523   8.625 -24.451  1.00  0.00    -0.135 C 
ATOM     12  C0I MOL     1       1.933   9.502 -23.402  1.00  0.00    -0.071 C 
ATOM     13  C0H MOL     1       1.138   9.689 -22.292  1.00  0.00    -0.152 C 
ENDBRANCH   7   8
ENDBRANCH   5   7
BRANCH   6  14
ATOM     14  C0O MOL     1      -3.673   9.707 -21.324  1.00  0.00     0.092 C 
BRANCH  14  15
ATOM     15  N0P MOL     1      -3.698   9.697 -22.821  1.00  0.00    -0.153 N 
ATOM     16  H0Q MOL     1      -2.952   9.127 -23.184  1.00  0.00     0.257 HD
ATOM     17  H0R MOL     1      -4.536   9.202 -23.109  1.00  0.00     0.244 HD
ATOM     18  H0S MOL     1      -3.619  10.605 -23.257  1.00  0.00     0.246 HD
ENDBRANCH  14  15
ENDBRANCH   6  14
BRANCH   4  19
ATOM     19  C0A MOL     1      -0.074   6.780 -19.133  1.00  0.00    -0.219 C 
BRANCH  19  20
ATOM     20  C0B MOL     1       0.104   7.212 -17.640  1.00  0.00     0.819 C 
ATOM     21  N0C MOL     1      -0.031   6.290 -16.737  1.00  0.00    -0.993 N 
ATOM     22  H13 MOL     1      -0.195   5.348 -17.082  1.00  0.00     0.395 HD
ATOM     23  H14 MOL     1      -0.010   6.525 -15.762  1.00  0.00     0.440 HD
ATOM     24  O0D MOL     1       0.440   8.348 -17.359  1.00  0.00    -0.614 OA
ENDBRANCH  19  20
ENDBRANCH   4  19
BRANCH   1  25
ATOM     25  C01 MOL     1      -5.728   7.689 -20.706  1.00  0.00    -0.066 C 
ATOM     26  C00 MOL     1      -6.149   7.046 -22.114  1.00  0.00    -0.126 C 
ENDBRANCH   1  25
BRANCH   2  27
ATOM     27  C04 MOL     1      -4.689   5.079 -19.355  1.00  0.00    -0.266 C 
BRANCH  27  28
ATOM     28  C05 MOL     1      -5.135   5.043 -17.915  1.00  0.00     0.870 C 
ATOM     29  O06 MOL     1      -4.748   4.230 -17.098  1.00  0.00    -0.820 OA
ATOM     30  O07 MOL     1      -5.908   5.976 -17.511  1.00  0.00    -0.676 OA
ENDBRANCH  27  28
ENDBRANCH   2  27
TORSDOF 9
ENDMDL
MODEL 8
REMARK VINA RESULT:      -5.6      3.896      6.181
REMARK  9 active torsions:
REMARK  status: ('A' for Active; 'I' for Inactive)
REMARK    1  A    between atoms: C01_2  and  C02_3 
REMARK    2  A    between atoms: C03_4  and  C04_5 
REMARK    3  A    between atoms: C04_5  and  C05_6 
REMARK    4  A    between atoms: C09_10  and  C0A_11 
REMARK    5  A    between atoms: C0A_11  and  C0B_12 
REMARK       I    between atoms: C0B_12  and  N0C_13 
REMARK    6  A    between atoms: C0E_15  and  C0F_16 
REMARK    7  A    between atoms: C0F_16  and  C0G_17 
REMARK    8  A    between atoms: C0N_23  and  C0O_24 
REMARK    9  A    between atoms: C0O_24  and  N0P_25 
ROOT
ATOM      1  C02 MOL     1       0.943  11.017  -3.761  1.00  0.00    -0.044 C 
ATOM      2  C03 MOL     1      -0.259  11.120  -3.049  1.00  0.00     0.129 C 
ATOM      3  C08 MOL     1      -0.302  11.264  -1.604  1.00  0.00    -0.316 C 
ATOM      4  C09 MOL     1       0.892  11.443  -0.931  1.00  0.00     0.109 C 
ATOM      5  C0E MOL     1       2.098  11.285  -1.550  1.00  0.00    -0.064 C 
ATOM      6  C0N MOL     1       2.133  11.178  -2.961  1.00  0.00    -0.120 C 
ENDROOT
BRANCH   5   7
ATOM      7  C0F MOL     1       3.369  11.381  -0.722  1.00  0.00     0.047 C 
BRANCH   7   8
ATOM      8  C0G MOL     1       3.953  10.140  -0.104  1.00  0.00     0.171 C 
ATOM      9  C0M MOL     1       4.018   9.974   1.295  1.00  0.00    -0.195 C 
ATOM     10  C0K MOL     1       4.587   8.806   1.866  1.00  0.00    -0.062 C 
ATOM     11  C0J MOL     1       5.263   7.862   1.088  1.00  0.00    -0.135 C 
ATOM     12  C0I MOL     1       5.211   8.076  -0.322  1.00  0.00    -0.071 C 
ATOM     13  C0H MOL     1       4.532   9.156  -0.844  1.00  0.00    -0.152 C 
ENDBRANCH   7   8
ENDBRANCH   5   7
BRANCH   6  14
ATOM     14  C0O MOL     1       3.491  11.075  -3.729  1.00  0.00     0.092 C 
BRANCH  14  15
ATOM     15  N0P MOL     1       4.147  12.367  -4.109  1.00  0.00    -0.153 N 
ATOM     16  H0Q MOL     1       4.081  12.518  -5.102  1.00  0.00     0.257 HD
ATOM     17  H0R MOL     1       3.590  13.119  -3.716  1.00  0.00     0.244 HD
ATOM     18  H0S MOL     1       5.124  12.441  -3.860  1.00  0.00     0.246 HD
ENDBRANCH  14  15
ENDBRANCH   6  14
BRANCH   4  19
ATOM     19  C0A MOL     1       0.772  11.888   0.545  1.00  0.00    -0.219 C 
BRANCH  19  20
ATOM     20  C0B MOL     1       0.697  13.434   0.767  1.00  0.00     0.819 C 
ATOM     21  N0C MOL     1       1.632  13.975   1.487  1.00  0.00    -0.993 N 
ATOM     22  H13 MOL     1       2.367  13.349   1.808  1.00  0.00     0.395 HD
ATOM     23  H14 MOL     1       1.589  14.947   1.732  1.00  0.00     0.440 HD
ATOM     24  O0D MOL     1      -0.157  14.101   0.211  1.00  0.00    -0.614 OA
ENDBRANCH  19  20
ENDBRANCH   4  19
BRANCH   1  25
ATOM     25  C01 MOL     1       1.008  10.813  -5.291  1.00  0.00    -0.066 C 
ATOM     26  C00 MOL     1       0.971   9.261  -5.695  1.00  0.00    -0.126 C 
ENDBRANCH   1  25
BRANCH   2  27
ATOM     27  C04 MOL     1      -1.638  10.984  -3.653  1.00  0.00    -0.266 C 
BRANCH  27  28
ATOM     28  C05 MOL     1      -2.176   9.576  -3.720  1.00  0.00     0.870 C 
ATOM     29  O06 MOL     1      -1.783   8.659  -3.026  1.00  0.00    -0.820 OA
ATOM     30  O07 MOL     1      -3.161   9.356  -4.504  1.00  0.00    -0.676 OA
ENDBRANCH  27  28
ENDBRANCH   2  27
TORSDOF 9
ENDMDL
MODEL 9
REMARK VINA RESULT:      -5.5     15.204     18.147
REMARK  9 active torsions:
REMARK  status: ('A' for Active; 'I' for Inactive)
REMARK    1  A    between atoms: C01_2  and  C02_3 
REMARK    2  A    between atoms: C03_4  and  C04_5 
REMARK    3  A    between atoms: C04_5  and  C05_6 
REMARK    4  A    between atoms: C09_10  and  C0A_11 
REMARK    5  A    between atoms: C0A_11  and  C0B_12 
REMARK       I    between atoms: C0B_12  and  N0C_13 
REMARK    6  A    between atoms: C0E_15  and  C0F_16 
REMARK    7  A    between atoms: C0F_16  and  C0G_17 
REMARK    8  A    between atoms: C0N_23  and  C0O_24 
REMARK    9  A    between atoms: C0O_24  and  N0P_25 
ROOT
ATOM      1  C02 MOL     1      -5.257   8.886 -23.894  1.00  0.00    -0.044 C 
ATOM      2  C03 MOL     1      -6.221   7.981 -23.428  1.00  0.00     0.129 C 
ATOM      3  C08 MOL     1      -6.141   7.360 -22.118  1.00  0.00    -0.316 C 
ATOM      4  C09 MOL     1      -5.151   7.787 -21.253  1.00  0.00     0.109 C 
ATOM      5  C0E MOL     1      -4.143   8.610 -21.664  1.00  0.00    -0.064 C 
ATOM      6  C0N MOL     1      -4.245   9.237 -22.928  1.00  0.00    -0.120 C 
ENDROOT
BRANCH   5   7
ATOM      7  C0F MOL     1      -3.023   8.944 -20.690  1.00  0.00     0.047 C 
BRANCH   7   8
ATOM      8  C0G MOL     1      -1.801   8.069 -20.630  1.00  0.00     0.171 C 
ATOM      9  C0M MOL     1      -1.024   7.810 -21.778  1.00  0.00    -0.195 C 
ATOM     10  C0K MOL     1       0.117   6.968 -21.712  1.00  0.00    -0.062 C 
ATOM     11  C0J MOL     1       0.416   6.223 -20.568  1.00  0.00    -0.135 C 
ATOM     12  C0I MOL     1      -0.411   6.480 -19.433  1.00  0.00    -0.071 C 
ATOM     13  C0H MOL     1      -1.429   7.407 -19.502  1.00  0.00    -0.152 C 
ENDBRANCH   7   8
ENDBRANCH   5   7
BRANCH   6  14
ATOM     14  C0O MOL     1      -3.158  10.250 -23.416  1.00  0.00     0.092 C 
BRANCH  14  15
ATOM     15  N0P MOL     1      -3.387  11.692 -23.082  1.00  0.00    -0.153 N 
ATOM     16  H0Q MOL     1      -2.591  12.247 -23.351  1.00  0.00     0.257 HD
ATOM     17  H0R MOL     1      -4.128  12.031 -23.688  1.00  0.00     0.244 HD
ATOM     18  H0S MOL     1      -3.569  11.882 -22.107  1.00  0.00     0.246 HD
ENDBRANCH  14  15
ENDBRANCH   6  14
BRANCH   4  19
ATOM     19  C0A MOL     1      -5.293   7.321 -19.785  1.00  0.00    -0.219 C 
BRANCH  19  20
ATOM     20  C0B MOL     1      -6.060   8.309 -18.847  1.00  0.00     0.819 C 
ATOM     21  N0C MOL     1      -6.844   7.790 -17.953  1.00  0.00    -0.993 N 
ATOM     22  H13 MOL     1      -6.857   6.773 -17.908  1.00  0.00     0.395 HD
ATOM     23  H14 MOL     1      -7.423   8.375 -17.380  1.00  0.00     0.440 HD
ATOM     24  O0D MOL     1      -5.853   9.508 -18.905  1.00  0.00    -0.614 OA
ENDBRANCH  19  20
ENDBRANCH   4  19
BRANCH   1  25
ATOM     25  C01 MOL     1      -5.298   9.517 -25.303  1.00  0.00    -0.066 C 
ATOM     26  C00 MOL     1      -4.637   8.564 -26.411  1.00  0.00    -0.126 C 
ENDBRANCH   1  25
BRANCH   2  27
ATOM     27  C04 MOL     1      -7.380   7.454 -24.244  1.00  0.00    -0.266 C 
BRANCH  27  28
ATOM     28  C05 MOL     1      -8.424   8.476 -24.617  1.00  0.00     0.870 C 
ATOM     29  O06 MOL     1      -9.073   9.117 -23.813  1.00  0.00    -0.820 OA
ATOM     30  O07 MOL     1      -8.578   8.739 -25.857  1.00  0.00    -0.676 OA
ENDBRANCH  27  28
ENDBRANCH   2  27
TORSDOF 9
ENDMDL
MODEL 10
REMARK VINA RESULT:      -5.5     20.161     22.923
REMARK  9 active torsions:
REMARK  status: ('A' for Active; 'I' for Inactive)
REMARK    1  A    between atoms: C01_2  and  C02_3 
REMARK    2  A    between atoms: C03_4  and  C04_5 
REMARK    3  A    between atoms: C04_5  and  C05_6 
REMARK    4  A    between atoms: C09_10  and  C0A_11 
REMARK    5  A    between atoms: C0A_11  and  C0B_12 
REMARK       I    between atoms: C0B_12  and  N0C_13 
REMARK    6  A    between atoms: C0E_15  and  C0F_16 
REMARK    7  A    between atoms: C0F_16  and  C0G_17 
REMARK    8  A    between atoms: C0N_23  and  C0O_24 
REMARK    9  A    between atoms: C0O_24  and  N0P_25 
ROOT
ATOM      1  C02 MOL     1     -12.361   1.834  11.702  1.00  0.00    -0.044 C 
ATOM      2  C03 MOL     1     -11.306   2.344  10.933  1.00  0.00     0.129 C 
ATOM      3  C08 MOL     1      -9.949   1.836  11.034  1.00  0.00    -0.316 C 
ATOM      4  C09 MOL     1      -9.727   0.718  11.815  1.00  0.00     0.109 C 
ATOM      5  C0E MOL     1     -10.691   0.214  12.640  1.00  0.00    -0.064 C 
ATOM      6  C0N MOL     1     -12.017   0.692  12.513  1.00  0.00    -0.120 C 
ENDROOT
BRANCH   5   7
ATOM      7  C0F MOL     1     -10.341  -0.947  13.558  1.00  0.00     0.047 C 
BRANCH   7   8
ATOM      8  C0G MOL     1     -10.299  -0.734  15.047  1.00  0.00     0.171 C 
ATOM      9  C0M MOL     1     -10.449  -1.807  15.948  1.00  0.00    -0.195 C 
ATOM     10  C0K MOL     1     -10.426  -1.591  17.351  1.00  0.00    -0.062 C 
ATOM     11  C0J MOL     1     -10.433  -0.305  17.897  1.00  0.00    -0.135 C 
ATOM     12  C0I MOL     1     -10.316   0.763  16.957  1.00  0.00    -0.071 C 
ATOM     13  C0H MOL     1     -10.208   0.502  15.607  1.00  0.00    -0.152 C 
ENDBRANCH   7   8
ENDBRANCH   5   7
BRANCH   6  14
ATOM     14  C0O MOL     1     -13.175   0.094  13.377  1.00  0.00     0.092 C 
BRANCH  14  15
ATOM     15  N0P MOL     1     -13.876  -1.107  12.822  1.00  0.00    -0.153 N 
ATOM     16  H0Q MOL     1     -13.224  -1.708  12.345  1.00  0.00     0.257 HD
ATOM     17  H0R MOL     1     -14.186  -1.670  13.608  1.00  0.00     0.244 HD
ATOM     18  H0S MOL     1     -14.625  -0.906  12.174  1.00  0.00     0.246 HD
ENDBRANCH  14  15
ENDBRANCH   6  14
BRANCH   4  19
ATOM     19  C0A MOL     1      -8.345   0.045  11.650  1.00  0.00    -0.219 C 
BRANCH  19  20
ATOM     20  C0B MOL     1      -7.344   0.805  10.720  1.00  0.00     0.819 C 
ATOM     21  N0C MOL     1      -7.346   0.488   9.462  1.00  0.00    -0.993 N 
ATOM     22  H13 MOL     1      -8.039  -0.200   9.176  1.00  0.00     0.395 HD
ATOM     23  H14 MOL     1      -6.669   0.882   8.835  1.00  0.00     0.440 HD
ATOM     24  O0D MOL     1      -6.659   1.713  11.156  1.00  0.00    -0.614 OA
ENDBRANCH  19  20
ENDBRANCH   4  19
BRANCH   1  25
ATOM     25  C01 MOL     1     -13.799   2.395  11.646  1.00  0.00    -0.066 C 
ATOM     26  C00 MOL     1     -14.640   1.780  10.427  1.00  0.00    -0.126 C 
ENDBRANCH   1  25
BRANCH   2  27
ATOM     27  C04 MOL     1     -11.406   3.535  10.008  1.00  0.00    -0.266 C 
BRANCH  27  28
ATOM     28  C05 MOL     1     -11.072   4.867  10.632  1.00  0.00     0.870 C 
ATOM     29  O06 MOL     1     -11.831   5.501  11.340  1.00  0.00    -0.820 OA
ATOM     30  O07 MOL     1      -9.887   5.317  10.470  1.00  0.00    -0.676 OA
ENDBRANCH  27  28
ENDBRANCH   2  27
TORSDOF 9
ENDMDL
MODEL 11
REMARK VINA RESULT:      -5.4      3.553      5.823
REMARK  9 active torsions:
REMARK  status: ('A' for Active; 'I' for Inactive)
REMARK    1  A    between atoms: C01_2  and  C02_3 
REMARK    2  A    between atoms: C03_4  and  C04_5 
REMARK    3  A    between atoms: C04_5  and  C05_6 
REMARK    4  A    between atoms: C09_10  and  C0A_11 
REMARK    5  A    between atoms: C0A_11  and  C0B_12 
REMARK       I    between atoms: C0B_12  and  N0C_13 
REMARK    6  A    between atoms: C0E_15  and  C0F_16 
REMARK    7  A    between atoms: C0F_16  and  C0G_17 
REMARK    8  A    between atoms: C0N_23  and  C0O_24 
REMARK    9  A    between atoms: C0O_24  and  N0P_25 
ROOT
ATOM      1  C02 MOL     1       3.219  10.454  -5.104  1.00  0.00    -0.044 C 
ATOM      2  C03 MOL     1       3.075  11.150  -3.896  1.00  0.00     0.129 C 
ATOM      3  C08 MOL     1       1.888  11.039  -3.067  1.00  0.00    -0.316 C 
ATOM      4  C09 MOL     1       0.932  10.105  -3.419  1.00  0.00     0.109 C 
ATOM      5  C0E MOL     1       0.975   9.446  -4.614  1.00  0.00    -0.064 C 
ATOM      6  C0N MOL     1       2.149   9.534  -5.400  1.00  0.00    -0.120 C 
ENDROOT
BRANCH   5   7
ATOM      7  C0F MOL     1      -0.172   8.520  -4.986  1.00  0.00     0.047 C 
BRANCH   7   8
ATOM      8  C0G MOL     1      -0.183   7.104  -4.477  1.00  0.00     0.171 C 
ATOM      9  C0M MOL     1       0.856   6.202  -4.790  1.00  0.00    -0.195 C 
ATOM     10  C0K MOL     1       0.826   4.864  -4.320  1.00  0.00    -0.062 C 
ATOM     11  C0J MOL     1      -0.301   4.331  -3.687  1.00  0.00    -0.135 C 
ATOM     12  C0I MOL     1      -1.350   5.260  -3.416  1.00  0.00    -0.071 C 
ATOM     13  C0H MOL     1      -1.224   6.586  -3.774  1.00  0.00    -0.152 C 
ENDBRANCH   7   8
ENDBRANCH   5   7
BRANCH   6  14
ATOM     14  C0O MOL     1       2.284   8.737  -6.738  1.00  0.00     0.092 C 
BRANCH  14  15
ATOM     15  N0P MOL     1       1.675   9.361  -7.956  1.00  0.00    -0.153 N 
ATOM     16  H0Q MOL     1       0.670   9.325  -7.907  1.00  0.00     0.257 HD
ATOM     17  H0R MOL     1       1.879  10.355  -7.923  1.00  0.00     0.244 HD
ATOM     18  H0S MOL     1       1.946   8.941  -8.834  1.00  0.00     0.246 HD
ENDBRANCH  14  15
ENDBRANCH   6  14
BRANCH   4  19
ATOM     19  C0A MOL     1      -0.151   9.816  -2.354  1.00  0.00    -0.219 C 
BRANCH  19  20
ATOM     20  C0B MOL     1      -1.541  10.478  -2.624  1.00  0.00     0.819 C 
ATOM     21  N0C MOL     1      -1.541  11.697  -3.069  1.00  0.00    -0.993 N 
ATOM     22  H13 MOL     1      -0.627  12.105  -3.250  1.00  0.00     0.395 HD
ATOM     23  H14 MOL     1      -2.402  12.199  -3.180  1.00  0.00     0.440 HD
ATOM     24  O0D MOL     1      -2.569   9.836  -2.502  1.00  0.00    -0.614 OA
ENDBRANCH  19  20
ENDBRANCH   4  19
BRANCH   1  25
ATOM     25  C01 MOL     1       4.451  10.599  -6.024  1.00  0.00    -0.066 C 
ATOM     26  C00 MOL     1       4.278  11.793  -7.081  1.00  0.00    -0.126 C 
ENDBRANCH   1  25
BRANCH   2  27
ATOM     27  C04 MOL     1       4.054  12.172  -3.363  1.00  0.00    -0.266 C 
BRANCH  27  28
ATOM     28  C05 MOL     1       5.129  11.623  -2.459  1.00  0.00     0.870 C 
ATOM     29  O06 MOL     1       4.953  11.311  -1.297  1.00  0.00    -0.820 OA
ATOM     30  O07 MOL     1       6.278  11.402  -2.972  1.00  0.00    -0.676 OA
ENDBRANCH  27  28
ENDBRANCH   2  27
TORSDOF 9
ENDMDL
MODEL 12
REMARK VINA RESULT:      -5.4      3.032      6.878
REMARK  9 active torsions:
REMARK  status: ('A' for Active; 'I' for Inactive)
REMARK    1  A    between atoms: C01_2  and  C02_3 
REMARK    2  A    between atoms: C03_4  and  C04_5 
REMARK    3  A    between atoms: C04_5  and  C05_6 
REMARK    4  A    between atoms: C09_10  and  C0A_11 
REMARK    5  A    between atoms: C0A_11  and  C0B_12 
REMARK       I    between atoms: C0B_12  and  N0C_13 
REMARK    6  A    between atoms: C0E_15  and  C0F_16 
REMARK    7  A    between atoms: C0F_16  and  C0G_17 
REMARK    8  A    between atoms: C0N_23  and  C0O_24 
REMARK    9  A    between atoms: C0O_24  and  N0P_25 
ROOT
ATOM      1  C02 MOL     1      -0.527   6.704  -3.495  1.00  0.00    -0.044 C 
ATOM      2  C03 MOL     1      -0.413   8.101  -3.538  1.00  0.00     0.129 C 
ATOM      3  C08 MOL     1       0.716   8.774  -4.157  1.00  0.00    -0.316 C 
ATOM      4  C09 MOL     1       1.634   8.007  -4.847  1.00  0.00     0.109 C 
ATOM      5  C0E MOL     1       1.622   6.643  -4.788  1.00  0.00    -0.064 C 
ATOM      6  C0N MOL     1       0.504   5.994  -4.213  1.00  0.00    -0.120 C 
ENDROOT
BRANCH   5   7
ATOM      7  C0F MOL     1       2.733   5.867  -5.477  1.00  0.00     0.047 C 
BRANCH   7   8
ATOM      8  C0G MOL     1       2.483   5.243  -6.823  1.00  0.00     0.171 C 
ATOM      9  C0M MOL     1       2.667   3.861  -7.039  1.00  0.00    -0.195 C 
ATOM     10  C0K MOL     1       2.444   3.287  -8.318  1.00  0.00    -0.062 C 
ATOM     11  C0J MOL     1       2.213   4.076  -9.448  1.00  0.00    -0.135 C 
ATOM     12  C0I MOL     1       2.068   5.475  -9.203  1.00  0.00    -0.071 C 
ATOM     13  C0H MOL     1       2.160   5.976  -7.921  1.00  0.00    -0.152 C 
ENDBRANCH   7   8
ENDBRANCH   5   7
BRANCH   6  14
ATOM     14  C0O MOL     1       0.400   4.434  -4.190  1.00  0.00     0.092 C 
BRANCH  14  15
ATOM     15  N0P MOL     1      -0.464   3.804  -5.238  1.00  0.00    -0.153 N 
ATOM     16  H0Q MOL     1      -1.272   3.372  -4.819  1.00  0.00     0.257 HD
ATOM     17  H0R MOL     1      -0.860   4.553  -5.799  1.00  0.00     0.244 HD
ATOM     18  H0S MOL     1      -0.009   3.100  -5.803  1.00  0.00     0.246 HD
ENDBRANCH  14  15
ENDBRANCH   6  14
BRANCH   4  19
ATOM     19  C0A MOL     1       2.634   8.787  -5.731  1.00  0.00    -0.219 C 
BRANCH  19  20
ATOM     20  C0B MOL     1       1.991   9.851  -6.680  1.00  0.00     0.819 C 
ATOM     21  N0C MOL     1       1.608   9.446  -7.851  1.00  0.00    -0.993 N 
ATOM     22  H13 MOL     1       1.715   8.451  -8.036  1.00  0.00     0.395 HD
ATOM     23  H14 MOL     1       1.266  10.100  -8.531  1.00  0.00     0.440 HD
ATOM     24  O0D MOL     1       1.786  10.987  -6.290  1.00  0.00    -0.614 OA
ENDBRANCH  19  20
ENDBRANCH   4  19
BRANCH   1  25
ATOM     25  C01 MOL     1      -1.693   5.970  -2.798  1.00  0.00    -0.066 C 
ATOM     26  C00 MOL     1      -3.013   5.932  -3.708  1.00  0.00    -0.126 C 
ENDBRANCH   1  25
BRANCH   2  27
ATOM     27  C04 MOL     1      -1.360   9.068  -2.864  1.00  0.00    -0.266 C 
BRANCH  27  28
ATOM     28  C05 MOL     1      -2.169   9.933  -3.798  1.00  0.00     0.870 C 
ATOM     29  O06 MOL     1      -3.204   9.583  -4.332  1.00  0.00    -0.820 OA
ATOM     30  O07 MOL     1      -1.781  11.137  -3.975  1.00  0.00    -0.676 OA
ENDBRANCH  27  28
ENDBRANCH   2  27
TORSDOF 9
ENDMDL
MODEL 13
REMARK VINA RESULT:      -5.3     13.720     17.546
REMARK  9 active torsions:
REMARK  status: ('A' for Active; 'I' for Inactive)
REMARK    1  A    between atoms: C01_2  and  C02_3 
REMARK    2  A    between atoms: C03_4  and  C04_5 
REMARK    3  A    between atoms: C04_5  and  C05_6 
REMARK    4  A    between atoms: C09_10  and  C0A_11 
REMARK    5  A    between atoms: C0A_11  and  C0B_12 
REMARK       I    between atoms: C0B_12  and  N0C_13 
REMARK    6  A    between atoms: C0E_15  and  C0F_16 
REMARK    7  A    between atoms: C0F_16  and  C0G_17 
REMARK    8  A    between atoms: C0N_23  and  C0O_24 
REMARK    9  A    between atoms: C0O_24  and  N0P_25 
ROOT
ATOM      1  C02 MOL     1      -3.401   8.573 -22.110  1.00  0.00    -0.044 C 
ATOM      2  C03 MOL     1      -3.907   7.715 -21.124  1.00  0.00     0.129 C 
ATOM      3  C08 MOL     1      -3.071   6.767 -20.408  1.00  0.00    -0.316 C 
ATOM      4  C09 MOL     1      -1.705   6.816 -20.617  1.00  0.00     0.109 C 
ATOM      5  C0E MOL     1      -1.155   7.574 -21.609  1.00  0.00    -0.064 C 
ATOM      6  C0N MOL     1      -1.970   8.519 -22.278  1.00  0.00    -0.120 C 
ENDROOT
BRANCH   5   7
ATOM      7  C0F MOL     1       0.343   7.489 -21.856  1.00  0.00     0.047 C 
BRANCH   7   8
ATOM      8  C0G MOL     1       0.879   6.490 -22.845  1.00  0.00     0.171 C 
ATOM      9  C0M MOL     1       0.979   6.794 -24.218  1.00  0.00    -0.195 C 
ATOM     10  C0K MOL     1       1.471   5.837 -25.144  1.00  0.00    -0.062 C 
ATOM     11  C0J MOL     1       1.704   4.510 -24.775  1.00  0.00    -0.135 C 
ATOM     12  C0I MOL     1       1.560   4.224 -23.384  1.00  0.00    -0.071 C 
ATOM     13  C0H MOL     1       1.208   5.217 -22.495  1.00  0.00    -0.152 C 
ENDBRANCH   7   8
ENDBRANCH   5   7
BRANCH   6  14
ATOM     14  C0O MOL     1      -1.374   9.469 -23.367  1.00  0.00     0.092 C 
BRANCH  14  15
ATOM     15  N0P MOL     1      -0.842  10.786 -22.891  1.00  0.00    -0.153 N 
ATOM     16  H0Q MOL     1      -1.394  11.544 -23.259  1.00  0.00     0.257 HD
ATOM     17  H0R MOL     1      -1.006  10.837 -21.890  1.00  0.00     0.244 HD
ATOM     18  H0S MOL     1       0.121  10.972 -23.133  1.00  0.00     0.246 HD
ENDBRANCH  14  15
ENDBRANCH   6  14
BRANCH   4  19
ATOM     19  C0A MOL     1      -0.844   6.005 -19.621  1.00  0.00    -0.219 C 
BRANCH  19  20
ATOM     20  C0B MOL     1      -0.511   6.738 -18.281  1.00  0.00     0.819 C 
ATOM     21  N0C MOL     1      -0.554   6.032 -17.193  1.00  0.00    -0.993 N 
ATOM     22  H13 MOL     1      -0.755   5.042 -17.311  1.00  0.00     0.395 HD
ATOM     23  H14 MOL     1      -0.432   6.467 -16.297  1.00  0.00     0.440 HD
ATOM     24  O0D MOL     1      -0.145   7.899 -18.283  1.00  0.00    -0.614 OA
ENDBRANCH  19  20
ENDBRANCH   4  19
BRANCH   1  25
ATOM     25  C01 MOL     1      -4.283   9.551 -22.917  1.00  0.00    -0.066 C 
ATOM     26  C00 MOL     1      -4.961   8.845 -24.187  1.00  0.00    -0.126 C 
ENDBRANCH   1  25
BRANCH   2  27
ATOM     27  C04 MOL     1      -5.368   7.580 -20.760  1.00  0.00    -0.266 C 
BRANCH  27  28
ATOM     28  C05 MOL     1      -5.756   8.161 -19.423  1.00  0.00     0.870 C 
ATOM     29  O06 MOL     1      -6.342   7.547 -18.553  1.00  0.00    -0.820 OA
ATOM     30  O07 MOL     1      -5.372   9.352 -19.161  1.00  0.00    -0.676 OA
ENDBRANCH  27  28
ENDBRANCH   2  27
TORSDOF 9
ENDMDL
MODEL 14
REMARK VINA RESULT:      -5.3     14.401     16.614
REMARK  9 active torsions:
REMARK  status: ('A' for Active; 'I' for Inactive)
REMARK    1  A    between atoms: C01_2  and  C02_3 
REMARK    2  A    between atoms: C03_4  and  C04_5 
REMARK    3  A    between atoms: C04_5  and  C05_6 
REMARK    4  A    between atoms: C09_10  and  C0A_11 
REMARK    5  A    between atoms: C0A_11  and  C0B_12 
REMARK       I    between atoms: C0B_12  and  N0C_13 
REMARK    6  A    between atoms: C0E_15  and  C0F_16 
REMARK    7  A    between atoms: C0F_16  and  C0G_17 
REMARK    8  A    between atoms: C0N_23  and  C0O_24 
REMARK    9  A    between atoms: C0O_24  and  N0P_25 
ROOT
ATOM      1  C02 MOL     1      -3.435   5.826 -19.753  1.00  0.00    -0.044 C 
ATOM      2  C03 MOL     1      -3.992   6.622 -20.764  1.00  0.00     0.129 C 
ATOM      3  C08 MOL     1      -3.234   7.650 -21.455  1.00  0.00    -0.316 C 
ATOM      4  C09 MOL     1      -1.880   7.747 -21.198  1.00  0.00     0.109 C 
ATOM      5  C0E MOL     1      -1.289   7.054 -20.180  1.00  0.00    -0.064 C 
ATOM      6  C0N MOL     1      -2.024   6.032 -19.534  1.00  0.00    -0.120 C 
ENDROOT
BRANCH   5   7
ATOM      7  C0F MOL     1       0.181   7.298 -19.880  1.00  0.00     0.047 C 
BRANCH   7   8
ATOM      8  C0G MOL     1       1.216   6.328 -20.382  1.00  0.00     0.171 C 
ATOM      9  C0M MOL     1       1.121   5.750 -21.664  1.00  0.00    -0.195 C 
ATOM     10  C0K MOL     1       2.094   4.823 -22.120  1.00  0.00    -0.062 C 
ATOM     11  C0J MOL     1       3.075   4.308 -21.269  1.00  0.00    -0.135 C 
ATOM     12  C0I MOL     1       3.124   4.888 -19.966  1.00  0.00    -0.071 C 
ATOM     13  C0H MOL     1       2.240   5.884 -19.607  1.00  0.00    -0.152 C 
ENDBRANCH   7   8
ENDBRANCH   5   7
BRANCH   6  14
ATOM     14  C0O MOL     1      -1.372   5.154 -18.416  1.00  0.00     0.092 C 
BRANCH  14  15
ATOM     15  N0P MOL     1      -0.841   5.879 -17.218  1.00  0.00    -0.153 N 
ATOM     16  H0Q MOL     1       0.111   6.169 -17.372  1.00  0.00     0.257 HD
ATOM     17  H0R MOL     1      -1.347   6.756 -17.143  1.00  0.00     0.244 HD
ATOM     18  H0S MOL     1      -0.856   5.351 -16.356  1.00  0.00     0.246 HD
ENDBRANCH  14  15
ENDBRANCH   6  14
BRANCH   4  19
ATOM     19  C0A MOL     1      -1.072   8.640 -22.168  1.00  0.00    -0.219 C 
BRANCH  19  20
ATOM     20  C0B MOL     1      -1.126  10.172 -21.859  1.00  0.00     0.819 C 
ATOM     21  N0C MOL     1      -0.167  10.665 -21.137  1.00  0.00    -0.993 N 
ATOM     22  H13 MOL     1       0.570  10.016 -20.871  1.00  0.00     0.395 HD
ATOM     23  H14 MOL     1      -0.194  11.623 -20.838  1.00  0.00     0.440 HD
ATOM     24  O0D MOL     1      -1.988  10.875 -22.354  1.00  0.00    -0.614 OA
ENDBRANCH  19  20
ENDBRANCH   4  19
BRANCH   1  25
ATOM     25  C01 MOL     1      -4.238   4.764 -18.971  1.00  0.00    -0.066 C 
ATOM     26  C00 MOL     1      -5.218   5.425 -17.887  1.00  0.00    -0.126 C 
ENDBRANCH   1  25
BRANCH   2  27
ATOM     27  C04 MOL     1      -5.444   6.600 -21.181  1.00  0.00    -0.266 C 
BRANCH  27  28
ATOM     28  C05 MOL     1      -6.295   7.707 -20.611  1.00  0.00     0.870 C 
ATOM     29  O06 MOL     1      -5.970   8.407 -19.671  1.00  0.00    -0.820 OA
ATOM     30  O07 MOL     1      -7.395   7.975 -21.204  1.00  0.00    -0.676 OA
ENDBRANCH  27  28
ENDBRANCH   2  27
TORSDOF 9
ENDMDL
MODEL 15
REMARK VINA RESULT:      -5.3      3.807      6.534
REMARK  9 active torsions:
REMARK  status: ('A' for Active; 'I' for Inactive)
REMARK    1  A    between atoms: C01_2  and  C02_3 
REMARK    2  A    between atoms: C03_4  and  C04_5 
REMARK    3  A    between atoms: C04_5  and  C05_6 
REMARK    4  A    between atoms: C09_10  and  C0A_11 
REMARK    5  A    between atoms: C0A_11  and  C0B_12 
REMARK       I    between atoms: C0B_12  and  N0C_13 
REMARK    6  A    between atoms: C0E_15  and  C0F_16 
REMARK    7  A    between atoms: C0F_16  and  C0G_17 
REMARK    8  A    between atoms: C0N_23  and  C0O_24 
REMARK    9  A    between atoms: C0O_24  and  N0P_25 
ROOT
ATOM      1  C02 MOL     1       1.402  10.257  -2.616  1.00  0.00    -0.044 C 
ATOM      2  C03 MOL     1       0.320  10.719  -3.378  1.00  0.00     0.129 C 
ATOM      3  C08 MOL     1       0.392  10.882  -4.819  1.00  0.00    -0.316 C 
ATOM      4  C09 MOL     1       1.525  10.432  -5.471  1.00  0.00     0.109 C 
ATOM      5  C0E MOL     1       2.639  10.037  -4.788  1.00  0.00    -0.064 C 
ATOM      6  C0N MOL     1       2.551   9.850  -3.388  1.00  0.00    -0.120 C 
ENDROOT
BRANCH   5   7
ATOM      7  C0F MOL     1       3.889   9.666  -5.570  1.00  0.00     0.047 C 
BRANCH   7   8
ATOM      8  C0G MOL     1       4.817  10.749  -6.050  1.00  0.00     0.171 C 
ATOM      9  C0M MOL     1       5.303  10.769  -7.373  1.00  0.00    -0.195 C 
ATOM     10  C0K MOL     1       6.192  11.785  -7.809  1.00  0.00    -0.062 C 
ATOM     11  C0J MOL     1       6.762  12.696  -6.916  1.00  0.00    -0.135 C 
ATOM     12  C0I MOL     1       6.277  12.628  -5.575  1.00  0.00    -0.071 C 
ATOM     13  C0H MOL     1       5.312  11.708  -5.223  1.00  0.00    -0.152 C 
ENDBRANCH   7   8
ENDBRANCH   5   7
BRANCH   6  14
ATOM     14  C0O MOL     1       3.773   9.323  -2.566  1.00  0.00     0.092 C 
BRANCH  14  15
ATOM     15  N0P MOL     1       3.687   7.914  -2.064  1.00  0.00    -0.153 N 
ATOM     16  H0Q MOL     1       2.727   7.618  -2.005  1.00  0.00     0.257 HD
ATOM     17  H0R MOL     1       4.078   7.311  -2.781  1.00  0.00     0.244 HD
ATOM     18  H0S MOL     1       4.105   7.756  -1.158  1.00  0.00     0.246 HD
ENDBRANCH  14  15
ENDBRANCH   6  14
BRANCH   4  19
ATOM     19  C0A MOL     1       1.428  10.350  -7.012  1.00  0.00    -0.219 C 
BRANCH  19  20
ATOM     20  C0B MOL     1       1.404  11.729  -7.749  1.00  0.00     0.819 C 
ATOM     21  N0C MOL     1       0.433  11.938  -8.584  1.00  0.00    -0.993 N 
ATOM     22  H13 MOL     1      -0.263  11.199  -8.653  1.00  0.00     0.395 HD
ATOM     23  H14 MOL     1       0.413  12.769  -9.146  1.00  0.00     0.440 HD
ATOM     24  O0D MOL     1       2.218  12.593  -7.476  1.00  0.00    -0.614 OA
ENDBRANCH  19  20
ENDBRANCH   4  19
BRANCH   1  25
ATOM     25  C01 MOL     1       1.361  10.126  -1.078  1.00  0.00    -0.066 C 
ATOM     26  C00 MOL     1       1.748  11.500  -0.345  1.00  0.00    -0.126 C 
ENDBRANCH   1  25
BRANCH   2  27
ATOM     27  C04 MOL     1      -0.993  11.207  -2.810  1.00  0.00    -0.266 C 
BRANCH  27  28
ATOM     28  C05 MOL     1      -2.078  10.165  -2.706  1.00  0.00     0.870 C 
ATOM     29  O06 MOL     1      -2.876   9.917  -3.588  1.00  0.00    -0.820 OA
ATOM     30  O07 MOL     1      -2.106   9.444  -1.651  1.00  0.00    -0.676 OA
ENDBRANCH  27  28
ENDBRANCH   2  27
TORSDOF 9
ENDMDL
MODEL 16
REMARK VINA RESULT:      -5.3     12.508     15.201
REMARK  9 active torsions:
REMARK  status: ('A' for Active; 'I' for Inactive)
REMARK    1  A    between atoms: C01_2  and  C02_3 
REMARK    2  A    between atoms: C03_4  and  C04_5 
REMARK    3  A    between atoms: C04_5  and  C05_6 
REMARK    4  A    between atoms: C09_10  and  C0A_11 
REMARK    5  A    between atoms: C0A_11  and  C0B_12 
REMARK       I    between atoms: C0B_12  and  N0C_13 
REMARK    6  A    between atoms: C0E_15  and  C0F_16 
REMARK    7  A    between atoms: C0F_16  and  C0G_17 
REMARK    8  A    between atoms: C0N_23  and  C0O_24 
REMARK    9  A    between atoms: C0O_24  and  N0P_25 
ROOT
ATOM      1  C02 MOL     1      -2.513   5.721 -19.238  1.00  0.00    -0.044 C 
ATOM      2  C03 MOL     1      -3.177   6.454 -20.231  1.00  0.00     0.129 C 
ATOM      3  C08 MOL     1      -2.519   7.491 -21.008  1.00  0.00    -0.316 C 
ATOM      4  C09 MOL     1      -1.156   7.657 -20.852  1.00  0.00     0.109 C 
ATOM      5  C0E MOL     1      -0.463   7.028 -19.858  1.00  0.00    -0.064 C 
ATOM      6  C0N MOL     1      -1.101   5.997 -19.128  1.00  0.00    -0.120 C 
ENDROOT
BRANCH   5   7
ATOM      7  C0F MOL     1       1.012   7.348 -19.673  1.00  0.00     0.047 C 
BRANCH   7   8
ATOM      8  C0G MOL     1       1.432   8.350 -18.633  1.00  0.00     0.171 C 
ATOM      9  C0M MOL     1       2.792   8.577 -18.337  1.00  0.00    -0.195 C 
ATOM     10  C0K MOL     1       3.175   9.513 -17.341  1.00  0.00    -0.062 C 
ATOM     11  C0J MOL     1       2.238  10.112 -16.494  1.00  0.00    -0.135 C 
ATOM     12  C0I MOL     1       0.871   9.835 -16.797  1.00  0.00    -0.071 C 
ATOM     13  C0H MOL     1       0.538   9.022 -17.859  1.00  0.00    -0.152 C 
ENDBRANCH   7   8
ENDBRANCH   5   7
BRANCH   6  14
ATOM     14  C0O MOL     1      -0.331   5.188 -18.033  1.00  0.00     0.092 C 
BRANCH  14  15
ATOM     15  N0P MOL     1      -0.234   5.818 -16.678  1.00  0.00    -0.153 N 
ATOM     16  H0Q MOL     1       0.432   6.573 -16.685  1.00  0.00     0.257 HD
ATOM     17  H0R MOL     1      -1.118   6.283 -16.494  1.00  0.00     0.244 HD
ATOM     18  H0S MOL     1       0.033   5.191 -15.932  1.00  0.00     0.246 HD
ENDBRANCH  14  15
ENDBRANCH   6  14
BRANCH   4  19
ATOM     19  C0A MOL     1      -0.462   8.551 -21.906  1.00  0.00    -0.219 C 
BRANCH  19  20
ATOM     20  C0B MOL     1      -0.643  10.089 -21.693  1.00  0.00     0.819 C 
ATOM     21  N0C MOL     1       0.317  10.721 -21.091  1.00  0.00    -0.993 N 
ATOM     22  H13 MOL     1       1.134  10.165 -20.849  1.00  0.00     0.395 HD
ATOM     23  H14 MOL     1       0.220  11.691 -20.853  1.00  0.00     0.440 HD
ATOM     24  O0D MOL     1      -1.608  10.671 -22.155  1.00  0.00    -0.614 OA
ENDBRANCH  19  20
ENDBRANCH   4  19
BRANCH   1  25
ATOM     25  C01 MOL     1      -3.208   4.651 -18.367  1.00  0.00    -0.066 C 
ATOM     26  C00 MOL     1      -4.710   5.066 -17.986  1.00  0.00    -0.126 C 
ENDBRANCH   1  25
BRANCH   2  27
ATOM     27  C04 MOL     1      -4.653   6.353 -20.541  1.00  0.00    -0.266 C 
BRANCH  27  28
ATOM     28  C05 MOL     1      -5.415   7.653 -20.475  1.00  0.00     0.870 C 
ATOM     29  O06 MOL     1      -5.508   8.343 -19.479  1.00  0.00    -0.820 OA
ATOM     30  O07 MOL     1      -5.931   8.092 -21.559  1.00  0.00    -0.676 OA
ENDBRANCH  27  28
ENDBRANCH   2  27
TORSDOF 9
ENDMDL
MODEL 17
REMARK VINA RESULT:      -5.2      4.467      7.802
REMARK  9 active torsions:
REMARK  status: ('A' for Active; 'I' for Inactive)
REMARK    1  A    between atoms: C01_2  and  C02_3 
REMARK    2  A    between atoms: C03_4  and  C04_5 
REMARK    3  A    between atoms: C04_5  and  C05_6 
REMARK    4  A    between atoms: C09_10  and  C0A_11 
REMARK    5  A    between atoms: C0A_11  and  C0B_12 
REMARK       I    between atoms: C0B_12  and  N0C_13 
REMARK    6  A    between atoms: C0E_15  and  C0F_16 
REMARK    7  A    between atoms: C0F_16  and  C0G_17 
REMARK    8  A    between atoms: C0N_23  and  C0O_24 
REMARK    9  A    between atoms: C0O_24  and  N0P_25 
ROOT
ATOM      1  C02 MOL     1       2.263  11.065   1.158  1.00  0.00    -0.044 C 
ATOM      2  C03 MOL     1       0.972  11.608   1.098  1.00  0.00     0.129 C 
ATOM      3  C08 MOL     1       0.233  11.733  -0.146  1.00  0.00    -0.316 C 
ATOM      4  C09 MOL     1       0.774  11.168  -1.285  1.00  0.00     0.109 C 
ATOM      5  C0E MOL     1       2.051  10.688  -1.314  1.00  0.00    -0.064 C 
ATOM      6  C0N MOL     1       2.752  10.538  -0.093  1.00  0.00    -0.120 C 
ENDROOT
BRANCH   5   7
ATOM      7  C0F MOL     1       2.621  10.188  -2.632  1.00  0.00     0.047 C 
BRANCH   7   8
ATOM      8  C0G MOL     1       3.308  11.152  -3.561  1.00  0.00     0.171 C 
ATOM      9  C0M MOL     1       3.233  11.005  -4.961  1.00  0.00    -0.195 C 
ATOM     10  C0K MOL     1       3.900  11.910  -5.827  1.00  0.00    -0.062 C 
ATOM     11  C0J MOL     1       4.796  12.867  -5.342  1.00  0.00    -0.135 C 
ATOM     12  C0I MOL     1       4.877  12.968  -3.920  1.00  0.00    -0.071 C 
ATOM     13  C0H MOL     1       4.109  12.155  -3.113  1.00  0.00    -0.152 C 
ENDBRANCH   7   8
ENDBRANCH   5   7
BRANCH   6  14
ATOM     14  C0O MOL     1       4.188   9.919  -0.058  1.00  0.00     0.092 C 
BRANCH  14  15
ATOM     15  N0P MOL     1       4.274   8.430   0.079  1.00  0.00    -0.153 N 
ATOM     16  H0Q MOL     1       3.385   8.049   0.360  1.00  0.00     0.257 HD
ATOM     17  H0R MOL     1       4.414   8.046  -0.851  1.00  0.00     0.244 HD
ATOM     18  H0S MOL     1       4.963   8.100   0.739  1.00  0.00     0.246 HD
ENDBRANCH  14  15
ENDBRANCH   6  14
BRANCH   4  19
ATOM     19  C0A MOL     1      -0.176  11.064  -2.501  1.00  0.00    -0.219 C 
BRANCH  19  20
ATOM     20  C0B MOL     1      -1.414  10.131  -2.297  1.00  0.00     0.819 C 
ATOM     21  N0C MOL     1      -2.485  10.412  -2.974  1.00  0.00    -0.993 N 
ATOM     22  H13 MOL     1      -2.412  11.194  -3.621  1.00  0.00     0.395 HD
ATOM     23  H14 MOL     1      -3.334   9.900  -2.821  1.00  0.00     0.440 HD
ATOM     24  O0D MOL     1      -1.335   9.138  -1.597  1.00  0.00    -0.614 OA
ENDBRANCH  19  20
ENDBRANCH   4  19
BRANCH   1  25
ATOM     25  C01 MOL     1       3.084  10.970   2.462  1.00  0.00    -0.066 C 
ATOM     26  C00 MOL     1       2.779   9.619   3.271  1.00  0.00    -0.126 C 
ENDBRANCH   1  25
BRANCH   2  27
ATOM     27  C04 MOL     1       0.238  12.226   2.267  1.00  0.00    -0.266 C 
BRANCH  27  28
ATOM     28  C05 MOL     1      -0.543  11.259   3.121  1.00  0.00     0.870 C 
ATOM     29  O06 MOL     1      -1.001  10.207   2.720  1.00  0.00    -0.820 OA
ATOM     30  O07 MOL     1      -0.662  11.530   4.364  1.00  0.00    -0.676 OA
ENDBRANCH  27  28
ENDBRANCH   2  27
TORSDOF 9
ENDMDL
MODEL 18
REMARK VINA RESULT:      -5.2     21.209     23.580
REMARK  9 active torsions:
REMARK  status: ('A' for Active; 'I' for Inactive)
REMARK    1  A    between atoms: C01_2  and  C02_3 
REMARK    2  A    between atoms: C03_4  and  C04_5 
REMARK    3  A    between atoms: C04_5  and  C05_6 
REMARK    4  A    between atoms: C09_10  and  C0A_11 
REMARK    5  A    between atoms: C0A_11  and  C0B_12 
REMARK       I    between atoms: C0B_12  and  N0C_13 
REMARK    6  A    between atoms: C0E_15  and  C0F_16 
REMARK    7  A    between atoms: C0F_16  and  C0G_17 
REMARK    8  A    between atoms: C0N_23  and  C0O_24 
REMARK    9  A    between atoms: C0O_24  and  N0P_25 
ROOT
ATOM      1  C02 MOL     1      -8.158   1.943  13.649  1.00  0.00    -0.044 C 
ATOM      2  C03 MOL     1      -8.278   1.185  12.476  1.00  0.00     0.129 C 
ATOM      3  C08 MOL     1      -9.215   0.083  12.350  1.00  0.00    -0.316 C 
ATOM      4  C09 MOL     1     -10.113  -0.130  13.378  1.00  0.00     0.109 C 
ATOM      5  C0E MOL     1     -10.008   0.522  14.573  1.00  0.00    -0.064 C 
ATOM      6  C0N MOL     1      -9.115   1.615  14.677  1.00  0.00    -0.120 C 
ENDROOT
BRANCH   5   7
ATOM      7  C0F MOL     1     -10.959   0.152  15.700  1.00  0.00     0.047 C 
BRANCH   7   8
ATOM      8  C0G MOL     1     -10.541  -0.870  16.722  1.00  0.00     0.171 C 
ATOM      9  C0M MOL     1     -10.404  -2.233  16.387  1.00  0.00    -0.195 C 
ATOM     10  C0K MOL     1     -10.027  -3.191  17.364  1.00  0.00    -0.062 C 
ATOM     11  C0J MOL     1      -9.951  -2.866  18.721  1.00  0.00    -0.135 C 
ATOM     12  C0I MOL     1     -10.129  -1.485  19.033  1.00  0.00    -0.071 C 
ATOM     13  C0H MOL     1     -10.364  -0.563  18.035  1.00  0.00    -0.152 C 
ENDBRANCH   7   8
ENDBRANCH   5   7
BRANCH   6  14
ATOM     14  C0O MOL     1      -9.012   2.448  15.997  1.00  0.00     0.092 C 
BRANCH  14  15
ATOM     15  N0P MOL     1      -9.915   3.638  16.113  1.00  0.00    -0.153 N 
ATOM     16  H0Q MOL     1     -10.623   3.615  15.397  1.00  0.00     0.257 HD
ATOM     17  H0R MOL     1     -10.443   3.537  16.974  1.00  0.00     0.244 HD
ATOM     18  H0S MOL     1      -9.453   4.534  16.048  1.00  0.00     0.246 HD
ENDBRANCH  14  15
ENDBRANCH   6  14
BRANCH   4  19
ATOM     19  C0A MOL     1     -11.271  -1.107  13.069  1.00  0.00    -0.219 C 
BRANCH  19  20
ATOM     20  C0B MOL     1     -12.658  -0.431  12.812  1.00  0.00     0.819 C 
ATOM     21  N0C MOL     1     -13.716  -1.149  13.033  1.00  0.00    -0.993 N 
ATOM     22  H13 MOL     1     -13.553  -2.082  13.404  1.00  0.00     0.395 HD
ATOM     23  H14 MOL     1     -14.628  -0.797  12.807  1.00  0.00     0.440 HD
ATOM     24  O0D MOL     1     -12.728   0.744  12.503  1.00  0.00    -0.614 OA
ENDBRANCH  19  20
ENDBRANCH   4  19
BRANCH   1  25
ATOM     25  C01 MOL     1      -7.132   3.085  13.820  1.00  0.00    -0.066 C 
ATOM     26  C00 MOL     1      -7.678   4.478  13.242  1.00  0.00    -0.126 C 
ENDBRANCH   1  25
BRANCH   2  27
ATOM     27  C04 MOL     1      -7.394   1.331  11.258  1.00  0.00    -0.266 C 
BRANCH  27  28
ATOM     28  C05 MOL     1      -7.936   2.228  10.173  1.00  0.00     0.870 C 
ATOM     29  O06 MOL     1      -8.892   2.966  10.308  1.00  0.00    -0.820 OA
ATOM     30  O07 MOL     1      -7.298   2.270   9.067  1.00  0.00    -0.676 OA
ENDBRANCH  27  28
ENDBRANCH   2  27
TORSDOF 9
ENDMDL
MODEL 19
REMARK VINA RESULT:      -5.2     12.017     14.568
REMARK  9 active torsions:
REMARK  status: ('A' for Active; 'I' for Inactive)
REMARK    1  A    between atoms: C01_2  and  C02_3 
REMARK    2  A    between atoms: C03_4  and  C04_5 
REMARK    3  A    between atoms: C04_5  and  C05_6 
REMARK    4  A    between atoms: C09_10  and  C0A_11 
REMARK    5  A    between atoms: C0A_11  and  C0B_12 
REMARK       I    between atoms: C0B_12  and  N0C_13 
REMARK    6  A    between atoms: C0E_15  and  C0F_16 
REMARK    7  A    between atoms: C0F_16  and  C0G_17 
REMARK    8  A    between atoms: C0N_23  and  C0O_24 
REMARK    9  A    between atoms: C0O_24  and  N0P_25 
ROOT
ATOM      1  C02 MOL     1       2.666   5.431 -19.702  1.00  0.00    -0.044 C 
ATOM      2  C03 MOL     1       3.158   5.811 -18.446  1.00  0.00     0.129 C 
ATOM      3  C08 MOL     1       2.476   6.773 -17.597  1.00  0.00    -0.316 C 
ATOM      4  C09 MOL     1       1.228   7.218 -17.990  1.00  0.00     0.109 C 
ATOM      5  C0E MOL     1       0.722   6.944 -19.227  1.00  0.00    -0.064 C 
ATOM      6  C0N MOL     1       1.375   5.981 -20.034  1.00  0.00    -0.120 C 
ENDROOT
BRANCH   5   7
ATOM      7  C0F MOL     1      -0.605   7.564 -19.634  1.00  0.00     0.047 C 
BRANCH   7   8
ATOM      8  C0G MOL     1      -1.880   6.788 -19.443  1.00  0.00     0.171 C 
ATOM      9  C0M MOL     1      -1.935   5.656 -18.604  1.00  0.00    -0.195 C 
ATOM     10  C0K MOL     1      -3.139   4.922 -18.446  1.00  0.00    -0.062 C 
ATOM     11  C0J MOL     1      -4.262   5.172 -19.240  1.00  0.00    -0.135 C 
ATOM     12  C0I MOL     1      -4.164   6.302 -20.105  1.00  0.00    -0.071 C 
ATOM     13  C0H MOL     1      -3.019   7.070 -20.131  1.00  0.00    -0.152 C 
ENDBRANCH   7   8
ENDBRANCH   5   7
BRANCH   6  14
ATOM     14  C0O MOL     1       0.795   5.570 -21.426  1.00  0.00     0.092 C 
BRANCH  14  15
ATOM     15  N0P MOL     1       1.075   6.495 -22.570  1.00  0.00    -0.153 N 
ATOM     16  H0Q MOL     1       0.323   7.156 -22.682  1.00  0.00     0.257 HD
ATOM     17  H0R MOL     1       1.864   7.077 -22.306  1.00  0.00     0.244 HD
ATOM     18  H0S MOL     1       1.211   6.044 -23.464  1.00  0.00     0.246 HD
ENDBRANCH  14  15
ENDBRANCH   6  14
BRANCH   4  19
ATOM     19  C0A MOL     1       0.424   7.994 -16.921  1.00  0.00    -0.219 C 
BRANCH  19  20
ATOM     20  C0B MOL     1       0.874   9.474 -16.696  1.00  0.00     0.819 C 
ATOM     21  N0C MOL     1       0.461  10.356 -17.554  1.00  0.00    -0.993 N 
ATOM     22  H13 MOL     1      -0.166  10.014 -18.279  1.00  0.00     0.395 HD
ATOM     23  H14 MOL     1       0.786  11.304 -17.508  1.00  0.00     0.440 HD
ATOM     24  O0D MOL     1       1.513   9.786 -15.707  1.00  0.00    -0.614 OA
ENDBRANCH  19  20
ENDBRANCH   4  19
BRANCH   1  25
ATOM     25  C01 MOL     1       3.403   4.449 -20.639  1.00  0.00    -0.066 C 
ATOM     26  C00 MOL     1       4.466   5.196 -21.580  1.00  0.00    -0.126 C 
ENDBRANCH   1  25
BRANCH   2  27
ATOM     27  C04 MOL     1       4.486   5.376 -17.868  1.00  0.00    -0.266 C 
BRANCH  27  28
ATOM     28  C05 MOL     1       4.520   5.235 -16.367  1.00  0.00     0.870 C 
ATOM     29  O06 MOL     1       3.984   4.334 -15.751  1.00  0.00    -0.820 OA
ATOM     30  O07 MOL     1       5.224   6.075 -15.709  1.00  0.00    -0.676 OA
ENDBRANCH  27  28
ENDBRANCH   2  27
TORSDOF 9
ENDMDL
MODEL 20
REMARK VINA RESULT:      -5.2     11.799     15.414
REMARK  9 active torsions:
REMARK  status: ('A' for Active; 'I' for Inactive)
REMARK    1  A    between atoms: C01_2  and  C02_3 
REMARK    2  A    between atoms: C03_4  and  C04_5 
REMARK    3  A    between atoms: C04_5  and  C05_6 
REMARK    4  A    between atoms: C09_10  and  C0A_11 
REMARK    5  A    between atoms: C0A_11  and  C0B_12 
REMARK       I    between atoms: C0B_12  and  N0C_13 
REMARK    6  A    between atoms: C0E_15  and  C0F_16 
REMARK    7  A    between atoms: C0F_16  and  C0G_17 
REMARK    8  A    between atoms: C0N_23  and  C0O_24 
REMARK    9  A    between atoms: C0O_24  and  N0P_25 
ROOT
ATOM      1  C02 MOL     1       0.406   7.602 -17.283  1.00  0.00    -0.044 C 
ATOM      2  C03 MOL     1       0.754   8.959 -17.335  1.00  0.00     0.129 C 
ATOM      3  C08 MOL     1       0.589   9.764 -18.533  1.00  0.00    -0.316 C 
ATOM      4  C09 MOL     1      -0.066   9.199 -19.612  1.00  0.00     0.109 C 
ATOM      5  C0E MOL     1      -0.369   7.869 -19.655  1.00  0.00    -0.064 C 
ATOM      6  C0N MOL     1      -0.235   7.100 -18.474  1.00  0.00    -0.120 C 
ENDROOT
BRANCH   5   7
ATOM      7  C0F MOL     1      -0.983   7.295 -20.922  1.00  0.00     0.047 C 
BRANCH   7   8
ATOM      8  C0G MOL     1      -2.474   7.338 -21.113  1.00  0.00     0.171 C 
ATOM      9  C0M MOL     1      -3.105   8.439 -21.730  1.00  0.00    -0.195 C 
ATOM     10  C0K MOL     1      -4.515   8.476 -21.889  1.00  0.00    -0.062 C 
ATOM     11  C0J MOL     1      -5.348   7.526 -21.292  1.00  0.00    -0.135 C 
ATOM     12  C0I MOL     1      -4.681   6.443 -20.644  1.00  0.00    -0.071 C 
ATOM     13  C0H MOL     1      -3.304   6.377 -20.627  1.00  0.00    -0.152 C 
ENDBRANCH   7   8
ENDBRANCH   5   7
BRANCH   6  14
ATOM     14  C0O MOL     1      -0.643   5.591 -18.445  1.00  0.00     0.092 C 
BRANCH  14  15
ATOM     15  N0P MOL     1      -1.984   5.269 -17.861  1.00  0.00    -0.153 N 
ATOM     16  H0Q MOL     1      -2.496   6.114 -17.664  1.00  0.00     0.257 HD
ATOM     17  H0R MOL     1      -2.534   4.822 -18.589  1.00  0.00     0.244 HD
ATOM     18  H0S MOL     1      -1.962   4.727 -17.008  1.00  0.00     0.246 HD
ENDBRANCH  14  15
ENDBRANCH   6  14
BRANCH   4  19
ATOM     19  C0A MOL     1      -0.481  10.179 -20.734  1.00  0.00    -0.219 C 
BRANCH  19  20
ATOM     20  C0B MOL     1       0.664  11.102 -21.266  1.00  0.00     0.819 C 
ATOM     21  N0C MOL     1       1.588  10.544 -21.987  1.00  0.00    -0.993 N 
ATOM     22  H13 MOL     1       1.462   9.555 -22.186  1.00  0.00     0.395 HD
ATOM     23  H14 MOL     1       2.389  11.070 -22.285  1.00  0.00     0.440 HD
ATOM     24  O0D MOL     1       0.630  12.304 -21.078  1.00  0.00    -0.614 OA
ENDBRANCH  19  20
ENDBRANCH   4  19
BRANCH   1  25
ATOM     25  C01 MOL     1       0.622   6.718 -16.036  1.00  0.00    -0.066 C 
ATOM     26  C00 MOL     1       2.064   6.016 -16.037  1.00  0.00    -0.126 C 
ENDBRANCH   1  25
BRANCH   2  27
ATOM     27  C04 MOL     1       1.439   9.720 -16.223  1.00  0.00    -0.266 C 
BRANCH  27  28
ATOM     28  C05 MOL     1       2.924   9.919 -16.396  1.00  0.00     0.870 C 
ATOM     29  O06 MOL     1       3.519  10.934 -16.093  1.00  0.00    -0.820 OA
ATOM     30  O07 MOL     1       3.609   8.926 -16.817  1.00  0.00    -0.676 OA
ENDBRANCH  27  28
ENDBRANCH   2  27
TORSDOF 9
ENDMDL
