MODEL 1
REMARK VINA RESULT:      -6.5      0.000      0.000
REMARK  9 active torsions:
REMARK  status: ('A' for Active; 'I' for Inactive)
REMARK    1  A    between atoms: C01_2  and  C02_3 
REMARK    2  A    between atoms: C03_4  and  C04_5 
REMARK    3  A    between atoms: C04_5  and  C05_6 
REMARK    4  A    between atoms: C09_10  and  C0A_11 
REMARK    5  A    between atoms: C0A_11  and  C0B_12 
REMARK       I    between atoms: C0B_12  and  N0C_13 
REMARK    6  A    between atoms: C0E_15  and  C0F_16 
REMARK    7  A    between atoms: C0F_16  and  C0G_17 
REMARK    8  A    between atoms: C0N_23  and  C0O_24 
REMARK    9  A    between atoms: C0O_24  and  N0P_25 
ROOT
ATOM      1  C02 MOL     1       1.573   7.250  -6.256  1.00  0.00    -0.044 C 
ATOM      2  C03 MOL     1       0.666   6.311  -5.746  1.00  0.00     0.129 C 
ATOM      3  C08 MOL     1      -0.446   6.684  -4.888  1.00  0.00    -0.316 C 
ATOM      4  C09 MOL     1      -0.691   8.030  -4.686  1.00  0.00     0.109 C 
ATOM      5  C0E MOL     1       0.189   8.990  -5.094  1.00  0.00    -0.064 C 
ATOM      6  C0N MOL     1       1.250   8.624  -5.956  1.00  0.00    -0.120 C 
ENDROOT
BRANCH   5   7
ATOM      7  C0F MOL     1      -0.088  10.442  -4.734  1.00  0.00     0.047 C 
BRANCH   7   8
ATOM      8  C0G MOL     1       0.428  11.000  -3.436  1.00  0.00     0.171 C 
ATOM      9  C0M MOL     1       1.810  11.107  -3.178  1.00  0.00    -0.195 C 
ATOM     10  C0K MOL     1       2.284  11.618  -1.942  1.00  0.00    -0.062 C 
ATOM     11  C0J MOL     1       1.423  11.867  -0.870  1.00  0.00    -0.135 C 
ATOM     12  C0I MOL     1       0.032  11.715  -1.151  1.00  0.00    -0.071 C 
ATOM     13  C0H MOL     1      -0.394  11.343  -2.408  1.00  0.00    -0.152 C 
ENDBRANCH   7   8
ENDBRANCH   5   7
BRANCH   6  14
ATOM     14  C0O MOL     1       2.240   9.696  -6.517  1.00  0.00     0.092 C 
BRANCH  14  15
ATOM     15  N0P MOL     1       1.866  10.341  -7.816  1.00  0.00    -0.153 N 
ATOM     16  H0Q MOL     1       2.429  11.159  -7.980  1.00  0.00     0.257 HD
ATOM     17  H0R MOL     1       2.144   9.709  -8.561  1.00  0.00     0.244 HD
ATOM     18  H0S MOL     1       0.899  10.623  -7.891  1.00  0.00     0.246 HD
ENDBRANCH  14  15
ENDBRANCH   6  14
BRANCH   4  19
ATOM     19  C0A MOL     1      -2.045   8.375  -4.025  1.00  0.00    -0.219 C 
BRANCH  19  20
ATOM     20  C0B MOL     1      -3.200   8.723  -5.020  1.00  0.00     0.819 C 
ATOM     21  N0C MOL     1      -3.466   7.853  -5.946  1.00  0.00    -0.993 N 
ATOM     22  H13 MOL     1      -2.927   6.990  -5.916  1.00  0.00     0.395 HD
ATOM     23  H14 MOL     1      -4.139   8.059  -6.661  1.00  0.00     0.440 HD
ATOM     24  O0D MOL     1      -3.870   9.728  -4.867  1.00  0.00    -0.614 OA
ENDBRANCH  19  20
ENDBRANCH   4  19
BRANCH   1  25
ATOM     25  C01 MOL     1       2.790   6.867  -7.126  1.00  0.00    -0.066 C 
ATOM     26  C00 MOL     1       2.399   6.715  -8.675  1.00  0.00    -0.126 C 
ENDBRANCH   1  25
BRANCH   2  27
ATOM     27  C04 MOL     1       0.781   4.814  -5.916  1.00  0.00    -0.266 C 
BRANCH  27  28
ATOM     28  C05 MOL     1       0.031   3.990  -4.901  1.00  0.00     0.870 C 
ATOM     29  O06 MOL     1      -0.860   3.209  -5.175  1.00  0.00    -0.820 OA
ATOM     30  O07 MOL     1       0.411   4.060  -3.683  1.00  0.00    -0.676 OA
ENDBRANCH  27  28
ENDBRANCH   2  27
TORSDOF 9
ENDMDL
MODEL 2
REMARK VINA RESULT:      -6.4      1.527      1.996
REMARK  9 active torsions:
REMARK  status: ('A' for Active; 'I' for Inactive)
REMARK    1  A    between atoms: C01_2  and  C02_3 
REMARK    2  A    between atoms: C03_4  and  C04_5 
REMARK    3  A    between atoms: C04_5  and  C05_6 
REMARK    4  A    between atoms: C09_10  and  C0A_11 
REMARK    5  A    between atoms: C0A_11  and  C0B_12 
REMARK       I    between atoms: C0B_12  and  N0C_13 
REMARK    6  A    between atoms: C0E_15  and  C0F_16 
REMARK    7  A    between atoms: C0F_16  and  C0G_17 
REMARK    8  A    between atoms: C0N_23  and  C0O_24 
REMARK    9  A    between atoms: C0O_24  and  N0P_25 
ROOT
ATOM      1  C02 MOL     1       1.929   7.845  -6.683  1.00  0.00    -0.044 C 
ATOM      2  C03 MOL     1       1.505   6.654  -6.077  1.00  0.00     0.129 C 
ATOM      3  C08 MOL     1       0.628   6.634  -4.920  1.00  0.00    -0.316 C 
ATOM      4  C09 MOL     1       0.086   7.832  -4.493  1.00  0.00     0.109 C 
ATOM      5  C0E MOL     1       0.507   9.031  -4.990  1.00  0.00    -0.064 C 
ATOM      6  C0N MOL     1       1.335   9.041  -6.138  1.00  0.00    -0.120 C 
ENDROOT
BRANCH   5   7
ATOM      7  C0F MOL     1      -0.050  10.313  -4.391  1.00  0.00     0.047 C 
BRANCH   7   8
ATOM      8  C0G MOL     1       0.583  10.893  -3.155  1.00  0.00     0.171 C 
ATOM      9  C0M MOL     1      -0.198  11.336  -2.067  1.00  0.00    -0.195 C 
ATOM     10  C0K MOL     1       0.408  11.898  -0.914  1.00  0.00    -0.062 C 
ATOM     11  C0J MOL     1       1.772  12.202  -0.875  1.00  0.00    -0.135 C 
ATOM     12  C0I MOL     1       2.530  11.774  -2.006  1.00  0.00    -0.071 C 
ATOM     13  C0H MOL     1       1.921  11.111  -3.050  1.00  0.00    -0.152 C 
ENDBRANCH   7   8
ENDBRANCH   5   7
BRANCH   6  14
ATOM     14  C0O MOL     1       1.782  10.387  -6.798  1.00  0.00     0.092 C 
BRANCH  14  15
ATOM     15  N0P MOL     1       0.978  10.859  -7.970  1.00  0.00    -0.153 N 
ATOM     16  H0Q MOL     1       0.472  11.698  -7.737  1.00  0.00     0.257 HD
ATOM     17  H0R MOL     1       1.632  11.167  -8.684  1.00  0.00     0.244 HD
ATOM     18  H0S MOL     1       0.306  10.194  -8.325  1.00  0.00     0.246 HD
ENDBRANCH  14  15
ENDBRANCH   6  14
BRANCH   4  19
ATOM     19  C0A MOL     1      -1.062   7.721  -3.463  1.00  0.00    -0.219 C 
BRANCH  19  20
ATOM     20  C0B MOL     1      -2.382   7.082  -4.007  1.00  0.00     0.819 C 
ATOM     21  N0C MOL     1      -2.701   5.907  -3.558  1.00  0.00    -0.993 N 
ATOM     22  H13 MOL     1      -2.084   5.518  -2.849  1.00  0.00     0.395 HD
ATOM     23  H14 MOL     1      -3.490   5.415  -3.933  1.00  0.00     0.440 HD
ATOM     24  O0D MOL     1      -3.114   7.709  -4.752  1.00  0.00    -0.614 OA
ENDBRANCH  19  20
ENDBRANCH   4  19
BRANCH   1  25
ATOM     25  C01 MOL     1       2.901   7.887  -7.882  1.00  0.00    -0.066 C 
ATOM     26  C00 MOL     1       4.436   7.877  -7.415  1.00  0.00    -0.126 C 
ENDBRANCH   1  25
BRANCH   2  27
ATOM     27  C04 MOL     1       1.981   5.271  -6.461  1.00  0.00    -0.266 C 
BRANCH  27  28
ATOM     28  C05 MOL     1       1.144   4.566  -7.498  1.00  0.00     0.870 C 
ATOM     29  O06 MOL     1       1.435   4.488  -8.676  1.00  0.00    -0.820 OA
ATOM     30  O07 MOL     1       0.102   3.945  -7.096  1.00  0.00    -0.676 OA
ENDBRANCH  27  28
ENDBRANCH   2  27
TORSDOF 9
ENDMDL
MODEL 3
REMARK VINA RESULT:      -6.2      3.259      6.665
REMARK  9 active torsions:
REMARK  status: ('A' for Active; 'I' for Inactive)
REMARK    1  A    between atoms: C01_2  and  C02_3 
REMARK    2  A    between atoms: C03_4  and  C04_5 
REMARK    3  A    between atoms: C04_5  and  C05_6 
REMARK    4  A    between atoms: C09_10  and  C0A_11 
REMARK    5  A    between atoms: C0A_11  and  C0B_12 
REMARK       I    between atoms: C0B_12  and  N0C_13 
REMARK    6  A    between atoms: C0E_15  and  C0F_16 
REMARK    7  A    between atoms: C0F_16  and  C0G_17 
REMARK    8  A    between atoms: C0N_23  and  C0O_24 
REMARK    9  A    between atoms: C0O_24  and  N0P_25 
ROOT
ATOM      1  C02 MOL     1       0.719  11.017  -2.410  1.00  0.00    -0.044 C 
ATOM      2  C03 MOL     1       2.032  11.158  -2.881  1.00  0.00     0.129 C 
ATOM      3  C08 MOL     1       2.547  10.394  -4.004  1.00  0.00    -0.316 C 
ATOM      4  C09 MOL     1       1.663   9.603  -4.714  1.00  0.00     0.109 C 
ATOM      5  C0E MOL     1       0.393   9.366  -4.272  1.00  0.00    -0.064 C 
ATOM      6  C0N MOL     1      -0.111  10.139  -3.198  1.00  0.00    -0.120 C 
ENDROOT
BRANCH   5   7
ATOM      7  C0F MOL     1      -0.485   8.393  -5.042  1.00  0.00     0.047 C 
BRANCH   7   8
ATOM      8  C0G MOL     1      -0.489   6.936  -4.667  1.00  0.00     0.171 C 
ATOM      9  C0M MOL     1      -1.361   6.433  -3.680  1.00  0.00    -0.195 C 
ATOM     10  C0K MOL     1      -1.344   5.059  -3.322  1.00  0.00    -0.062 C 
ATOM     11  C0J MOL     1      -0.356   4.189  -3.793  1.00  0.00    -0.135 C 
ATOM     12  C0I MOL     1       0.534   4.738  -4.765  1.00  0.00    -0.071 C 
ATOM     13  C0H MOL     1       0.398   6.044  -5.183  1.00  0.00    -0.152 C 
ENDBRANCH   7   8
ENDBRANCH   5   7
BRANCH   6  14
ATOM     14  C0O MOL     1      -1.584   9.965  -2.702  1.00  0.00     0.092 C 
BRANCH  14  15
ATOM     15  N0P MOL     1      -2.643  10.687  -3.478  1.00  0.00    -0.153 N 
ATOM     16  H0Q MOL     1      -2.229  11.375  -4.086  1.00  0.00     0.257 HD
ATOM     17  H0R MOL     1      -3.057  10.020  -4.122  1.00  0.00     0.244 HD
ATOM     18  H0S MOL     1      -3.336  11.162  -2.917  1.00  0.00     0.246 HD
ENDBRANCH  14  15
ENDBRANCH   6  14
BRANCH   4  19
ATOM     19  C0A MOL     1       2.184   9.056  -6.063  1.00  0.00    -0.219 C 
BRANCH  19  20
ATOM     20  C0B MOL     1       2.295  10.113  -7.209  1.00  0.00     0.819 C 
ATOM     21  N0C MOL     1       1.196  10.453  -7.810  1.00  0.00    -0.993 N 
ATOM     22  H13 MOL     1       0.342  10.036  -7.448  1.00  0.00     0.395 HD
ATOM     23  H14 MOL     1       1.218  11.063  -8.606  1.00  0.00     0.440 HD
ATOM     24  O0D MOL     1       3.360  10.649  -7.459  1.00  0.00    -0.614 OA
ENDBRANCH  19  20
ENDBRANCH   4  19
BRANCH   1  25
ATOM     25  C01 MOL     1       0.170  11.783  -1.187  1.00  0.00    -0.066 C 
ATOM     26  C00 MOL     1       0.375  10.966   0.178  1.00  0.00    -0.126 C 
ENDBRANCH   1  25
BRANCH   2  27
ATOM     27  C04 MOL     1       3.096  12.014  -2.233  1.00  0.00    -0.266 C 
BRANCH  27  28
ATOM     28  C05 MOL     1       4.031  11.284  -1.301  1.00  0.00     0.870 C 
ATOM     29  O06 MOL     1       5.033  10.695  -1.658  1.00  0.00    -0.820 OA
ATOM     30  O07 MOL     1       3.793  11.356  -0.048  1.00  0.00    -0.676 OA
ENDBRANCH  27  28
ENDBRANCH   2  27
TORSDOF 9
ENDMDL
MODEL 4
REMARK VINA RESULT:      -6.0      3.588      6.827
REMARK  9 active torsions:
REMARK  status: ('A' for Active; 'I' for Inactive)
REMARK    1  A    between atoms: C01_2  and  C02_3 
REMARK    2  A    between atoms: C03_4  and  C04_5 
REMARK    3  A    between atoms: C04_5  and  C05_6 
REMARK    4  A    between atoms: C09_10  and  C0A_11 
REMARK    5  A    between atoms: C0A_11  and  C0B_12 
REMARK       I    between atoms: C0B_12  and  N0C_13 
REMARK    6  A    between atoms: C0E_15  and  C0F_16 
REMARK    7  A    between atoms: C0F_16  and  C0G_17 
REMARK    8  A    between atoms: C0N_23  and  C0O_24 
REMARK    9  A    between atoms: C0O_24  and  N0P_25 
ROOT
ATOM      1  C02 MOL     1       1.956  10.583  -0.265  1.00  0.00    -0.044 C 
ATOM      2  C03 MOL     1       0.888  11.474  -0.095  1.00  0.00     0.129 C 
ATOM      3  C08 MOL     1      -0.005  11.840  -1.180  1.00  0.00    -0.316 C 
ATOM      4  C09 MOL     1       0.125  11.175  -2.384  1.00  0.00     0.109 C 
ATOM      5  C0E MOL     1       1.182  10.350  -2.640  1.00  0.00    -0.064 C 
ATOM      6  C0N MOL     1       2.028   9.972  -1.570  1.00  0.00    -0.120 C 
ENDROOT
BRANCH   5   7
ATOM      7  C0F MOL     1       1.323   9.743  -4.027  1.00  0.00     0.047 C 
BRANCH   7   8
ATOM      8  C0G MOL     1       1.860  10.581  -5.155  1.00  0.00     0.171 C 
ATOM      9  C0M MOL     1       1.146  10.737  -6.361  1.00  0.00    -0.195 C 
ATOM     10  C0K MOL     1       1.671  11.516  -7.425  1.00  0.00    -0.062 C 
ATOM     11  C0J MOL     1       2.978  12.008  -7.401  1.00  0.00    -0.135 C 
ATOM     12  C0I MOL     1       3.689  11.804  -6.180  1.00  0.00    -0.071 C 
ATOM     13  C0H MOL     1       3.092  11.155  -5.119  1.00  0.00    -0.152 C 
ENDBRANCH   7   8
ENDBRANCH   5   7
BRANCH   6  14
ATOM     14  C0O MOL     1       3.205   8.967  -1.789  1.00  0.00     0.092 C 
BRANCH  14  15
ATOM     15  N0P MOL     1       4.498   9.543  -2.279  1.00  0.00    -0.153 N 
ATOM     16  H0Q MOL     1       4.641   9.316  -3.250  1.00  0.00     0.257 HD
ATOM     17  H0R MOL     1       4.399  10.554  -2.284  1.00  0.00     0.244 HD
ATOM     18  H0S MOL     1       5.320   9.240  -1.777  1.00  0.00     0.246 HD
ENDBRANCH  14  15
ENDBRANCH   6  14
BRANCH   4  19
ATOM     19  C0A MOL     1      -1.027  11.381  -3.395  1.00  0.00    -0.219 C 
BRANCH  19  20
ATOM     20  C0B MOL     1      -2.107  10.250  -3.409  1.00  0.00     0.819 C 
ATOM     21  N0C MOL     1      -2.521   9.842  -4.569  1.00  0.00    -0.993 N 
ATOM     22  H13 MOL     1      -2.070  10.262  -5.378  1.00  0.00     0.395 HD
ATOM     23  H14 MOL     1      -3.272   9.180  -4.638  1.00  0.00     0.440 HD
ATOM     24  O0D MOL     1      -2.469   9.725  -2.372  1.00  0.00    -0.614 OA
ENDBRANCH  19  20
ENDBRANCH   4  19
BRANCH   1  25
ATOM     25  C01 MOL     1       2.947  10.221   0.863  1.00  0.00    -0.066 C 
ATOM     26  C00 MOL     1       4.174  11.251   0.942  1.00  0.00    -0.126 C 
ENDBRANCH   1  25
BRANCH   2  27
ATOM     27  C04 MOL     1       0.597  12.245   1.173  1.00  0.00    -0.266 C 
BRANCH  27  28
ATOM     28  C05 MOL     1       1.323  13.560   1.309  1.00  0.00     0.870 C 
ATOM     29  O06 MOL     1       1.801  14.177   0.378  1.00  0.00    -0.820 OA
ATOM     30  O07 MOL     1       1.368  14.094   2.469  1.00  0.00    -0.676 OA
ENDBRANCH  27  28
ENDBRANCH   2  27
TORSDOF 9
ENDMDL
MODEL 5
REMARK VINA RESULT:      -6.0      2.360      4.048
REMARK  9 active torsions:
REMARK  status: ('A' for Active; 'I' for Inactive)
REMARK    1  A    between atoms: C01_2  and  C02_3 
REMARK    2  A    between atoms: C03_4  and  C04_5 
REMARK    3  A    between atoms: C04_5  and  C05_6 
REMARK    4  A    between atoms: C09_10  and  C0A_11 
REMARK    5  A    between atoms: C0A_11  and  C0B_12 
REMARK       I    between atoms: C0B_12  and  N0C_13 
REMARK    6  A    between atoms: C0E_15  and  C0F_16 
REMARK    7  A    between atoms: C0F_16  and  C0G_17 
REMARK    8  A    between atoms: C0N_23  and  C0O_24 
REMARK    9  A    between atoms: C0O_24  and  N0P_25 
ROOT
ATOM      1  C02 MOL     1       1.156   6.383  -4.540  1.00  0.00    -0.044 C 
ATOM      2  C03 MOL     1       1.805   6.548  -5.771  1.00  0.00     0.129 C 
ATOM      3  C08 MOL     1       1.793   7.804  -6.500  1.00  0.00    -0.316 C 
ATOM      4  C09 MOL     1       1.235   8.909  -5.884  1.00  0.00     0.109 C 
ATOM      5  C0E MOL     1       0.528   8.805  -4.722  1.00  0.00    -0.064 C 
ATOM      6  C0N MOL     1       0.572   7.587  -4.002  1.00  0.00    -0.120 C 
ENDROOT
BRANCH   5   7
ATOM      7  C0F MOL     1      -0.157  10.043  -4.164  1.00  0.00     0.047 C 
BRANCH   7   8
ATOM      8  C0G MOL     1       0.449  10.765  -2.991  1.00  0.00     0.171 C 
ATOM      9  C0M MOL     1      -0.354  11.311  -1.968  1.00  0.00    -0.195 C 
ATOM     10  C0K MOL     1       0.229  12.005  -0.876  1.00  0.00    -0.062 C 
ATOM     11  C0J MOL     1       1.587  12.334  -0.853  1.00  0.00    -0.135 C 
ATOM     12  C0I MOL     1       2.367  11.796  -1.921  1.00  0.00    -0.071 C 
ATOM     13  C0H MOL     1       1.782  11.014  -2.893  1.00  0.00    -0.152 C 
ENDBRANCH   7   8
ENDBRANCH   5   7
BRANCH   6  14
ATOM     14  C0O MOL     1      -0.154   7.438  -2.625  1.00  0.00     0.092 C 
BRANCH  14  15
ATOM     15  N0P MOL     1      -1.611   7.093  -2.669  1.00  0.00    -0.153 N 
ATOM     16  H0Q MOL     1      -1.962   6.920  -1.742  1.00  0.00     0.257 HD
ATOM     17  H0R MOL     1      -2.113   7.927  -2.960  1.00  0.00     0.244 HD
ATOM     18  H0S MOL     1      -1.844   6.288  -3.233  1.00  0.00     0.246 HD
ENDBRANCH  14  15
ENDBRANCH   6  14
BRANCH   4  19
ATOM     19  C0A MOL     1       1.514  10.270  -6.564  1.00  0.00    -0.219 C 
BRANCH  19  20
ATOM     20  C0B MOL     1       3.016  10.551  -6.895  1.00  0.00     0.819 C 
ATOM     21  N0C MOL     1       3.335  10.669  -8.148  1.00  0.00    -0.993 N 
ATOM     22  H13 MOL     1       2.565  10.615  -8.811  1.00  0.00     0.395 HD
ATOM     23  H14 MOL     1       4.295  10.766  -8.423  1.00  0.00     0.440 HD
ATOM     24  O0D MOL     1       3.824  10.735  -6.003  1.00  0.00    -0.614 OA
ENDBRANCH  19  20
ENDBRANCH   4  19
BRANCH   1  25
ATOM     25  C01 MOL     1       1.115   5.042  -3.776  1.00  0.00    -0.066 C 
ATOM     26  C00 MOL     1      -0.147   4.145  -4.196  1.00  0.00    -0.126 C 
ENDBRANCH   1  25
BRANCH   2  27
ATOM     27  C04 MOL     1       2.490   5.443  -6.544  1.00  0.00    -0.266 C 
BRANCH  27  28
ATOM     28  C05 MOL     1       1.601   4.666  -7.482  1.00  0.00     0.870 C 
ATOM     29  O06 MOL     1       1.124   5.118  -8.505  1.00  0.00    -0.820 OA
ATOM     30  O07 MOL     1       1.401   3.431  -7.222  1.00  0.00    -0.676 OA
ENDBRANCH  27  28
ENDBRANCH   2  27
TORSDOF 9
ENDMDL
MODEL 6
REMARK VINA RESULT:      -5.9      1.974      2.674
REMARK  9 active torsions:
REMARK  status: ('A' for Active; 'I' for Inactive)
REMARK    1  A    between atoms: C01_2  and  C02_3 
REMARK    2  A    between atoms: C03_4  and  C04_5 
REMARK    3  A    between atoms: C04_5  and  C05_6 
REMARK    4  A    between atoms: C09_10  and  C0A_11 
REMARK    5  A    between atoms: C0A_11  and  C0B_12 
REMARK       I    between atoms: C0B_12  and  N0C_13 
REMARK    6  A    between atoms: C0E_15  and  C0F_16 
REMARK    7  A    between atoms: C0F_16  and  C0G_17 
REMARK    8  A    between atoms: C0N_23  and  C0O_24 
REMARK    9  A    between atoms: C0O_24  and  N0P_25 
ROOT
ATOM      1  C02 MOL     1       1.741   6.507  -5.643  1.00  0.00    -0.044 C 
ATOM      2  C03 MOL     1       1.043   6.230  -4.459  1.00  0.00     0.129 C 
ATOM      3  C08 MOL     1       0.552   7.275  -3.578  1.00  0.00    -0.316 C 
ATOM      4  C09 MOL     1       0.659   8.587  -3.999  1.00  0.00     0.109 C 
ATOM      5  C0E MOL     1       1.385   8.931  -5.102  1.00  0.00    -0.064 C 
ATOM      6  C0N MOL     1       1.833   7.909  -5.973  1.00  0.00    -0.120 C 
ENDROOT
BRANCH   5   7
ATOM      7  C0F MOL     1       1.558  10.404  -5.439  1.00  0.00     0.047 C 
BRANCH   7   8
ATOM      8  C0G MOL     1       2.773  11.144  -4.949  1.00  0.00     0.171 C 
ATOM      9  C0M MOL     1       2.952  11.442  -3.582  1.00  0.00    -0.195 C 
ATOM     10  C0K MOL     1       4.094  12.156  -3.135  1.00  0.00    -0.062 C 
ATOM     11  C0J MOL     1       4.990  12.746  -4.030  1.00  0.00    -0.135 C 
ATOM     12  C0I MOL     1       4.762  12.456  -5.409  1.00  0.00    -0.071 C 
ATOM     13  C0H MOL     1       3.714  11.646  -5.792  1.00  0.00    -0.152 C 
ENDBRANCH   7   8
ENDBRANCH   5   7
BRANCH   6  14
ATOM     14  C0O MOL     1       2.600   8.251  -7.291  1.00  0.00     0.092 C 
BRANCH  14  15
ATOM     15  N0P MOL     1       1.763   8.520  -8.504  1.00  0.00    -0.153 N 
ATOM     16  H0Q MOL     1       0.789   8.363  -8.304  1.00  0.00     0.257 HD
ATOM     17  H0R MOL     1       1.809   9.517  -8.691  1.00  0.00     0.244 HD
ATOM     18  H0S MOL     1       1.994   7.965  -9.316  1.00  0.00     0.246 HD
ENDBRANCH  14  15
ENDBRANCH   6  14
BRANCH   4  19
ATOM     19  C0A MOL     1      -0.140   9.624  -3.177  1.00  0.00    -0.219 C 
BRANCH  19  20
ATOM     20  C0B MOL     1      -1.402  10.208  -3.893  1.00  0.00     0.819 C 
ATOM     21  N0C MOL     1      -2.171   9.369  -4.515  1.00  0.00    -0.993 N 
ATOM     22  H13 MOL     1      -1.912   8.388  -4.444  1.00  0.00     0.395 HD
ATOM     23  H14 MOL     1      -2.947   9.697  -5.061  1.00  0.00     0.440 HD
ATOM     24  O0D MOL     1      -1.684  11.388  -3.789  1.00  0.00    -0.614 OA
ENDBRANCH  19  20
ENDBRANCH   4  19
BRANCH   1  25
ATOM     25  C01 MOL     1       2.316   5.411  -6.565  1.00  0.00    -0.066 C 
ATOM     26  C00 MOL     1       3.765   4.917  -6.086  1.00  0.00    -0.126 C 
ENDBRANCH   1  25
BRANCH   2  27
ATOM     27  C04 MOL     1       0.814   4.847  -3.894  1.00  0.00    -0.266 C 
BRANCH  27  28
ATOM     28  C05 MOL     1      -0.517   4.224  -4.233  1.00  0.00     0.870 C 
ATOM     29  O06 MOL     1      -0.664   3.307  -5.016  1.00  0.00    -0.820 OA
ATOM     30  O07 MOL     1      -1.544   4.639  -3.596  1.00  0.00    -0.676 OA
ENDBRANCH  27  28
ENDBRANCH   2  27
TORSDOF 9
ENDMDL
MODEL 7
REMARK VINA RESULT:      -5.9     13.492     16.665
REMARK  9 active torsions:
REMARK  status: ('A' for Active; 'I' for Inactive)
REMARK    1  A    between atoms: C01_2  and  C02_3 
REMARK    2  A    between atoms: C03_4  and  C04_5 
REMARK    3  A    between atoms: C04_5  and  C05_6 
REMARK    4  A    between atoms: C09_10  and  C0A_11 
REMARK    5  A    between atoms: C0A_11  and  C0B_12 
REMARK       I    between atoms: C0B_12  and  N0C_13 
REMARK    6  A    between atoms: C0E_15  and  C0F_16 
REMARK    7  A    between atoms: C0F_16  and  C0G_17 
REMARK    8  A    between atoms: C0N_23  and  C0O_24 
REMARK    9  A    between atoms: C0O_24  and  N0P_25 
ROOT
ATOM      1  C02 MOL     1      -4.255   7.390 -20.345  1.00  0.00    -0.044 C 
ATOM      2  C03 MOL     1      -3.820   6.220 -19.707  1.00  0.00     0.129 C 
ATOM      3  C08 MOL     1      -2.419   5.953 -19.434  1.00  0.00    -0.316 C 
ATOM      4  C09 MOL     1      -1.502   6.956 -19.690  1.00  0.00     0.109 C 
ATOM      5  C0E MOL     1      -1.845   8.087 -20.372  1.00  0.00    -0.064 C 
ATOM      6  C0N MOL     1      -3.215   8.355 -20.605  1.00  0.00    -0.120 C 
ENDROOT
BRANCH   5   7
ATOM      7  C0F MOL     1      -0.760   9.094 -20.721  1.00  0.00     0.047 C 
BRANCH   7   8
ATOM      8  C0G MOL     1      -0.198   9.131 -22.116  1.00  0.00     0.171 C 
ATOM      9  C0M MOL     1       0.144  10.348 -22.740  1.00  0.00    -0.195 C 
ATOM     10  C0K MOL     1       0.657  10.371 -24.063  1.00  0.00    -0.062 C 
ATOM     11  C0J MOL     1       0.677   9.226 -24.864  1.00  0.00    -0.135 C 
ATOM     12  C0I MOL     1       0.290   8.015 -24.215  1.00  0.00    -0.071 C 
ATOM     13  C0H MOL     1      -0.076   8.016 -22.886  1.00  0.00    -0.152 C 
ENDBRANCH   7   8
ENDBRANCH   5   7
BRANCH   6  14
ATOM     14  C0O MOL     1      -3.670   9.675 -21.310  1.00  0.00     0.092 C 
BRANCH  14  15
ATOM     15  N0P MOL     1      -3.686   9.665 -22.808  1.00  0.00    -0.153 N 
ATOM     16  H0Q MOL     1      -4.115   8.821 -23.151  1.00  0.00     0.257 HD
ATOM     17  H0R MOL     1      -4.323  10.395 -23.111  1.00  0.00     0.244 HD
ATOM     18  H0S MOL     1      -2.779   9.739 -23.246  1.00  0.00     0.246 HD
ENDBRANCH  14  15
ENDBRANCH   6  14
BRANCH   4  19
ATOM     19  C0A MOL     1      -0.087   6.738 -19.108  1.00  0.00    -0.219 C 
BRANCH  19  20
ATOM     20  C0B MOL     1       0.086   7.154 -17.611  1.00  0.00     0.819 C 
ATOM     21  N0C MOL     1      -0.068   6.226 -16.717  1.00  0.00    -0.993 N 
ATOM     22  H13 MOL     1      -0.242   5.289 -17.071  1.00  0.00     0.395 HD
ATOM     23  H14 MOL     1      -0.051   6.452 -15.739  1.00  0.00     0.440 HD
ATOM     24  O0D MOL     1       0.436   8.283 -17.316  1.00  0.00    -0.614 OA
ENDBRANCH  19  20
ENDBRANCH   4  19
BRANCH   1  25
ATOM     25  C01 MOL     1      -5.735   7.667 -20.690  1.00  0.00    -0.066 C 
ATOM     26  C00 MOL     1      -6.155   7.031 -22.101  1.00  0.00    -0.126 C 
ENDBRANCH   1  25
BRANCH   2  27
ATOM     27  C04 MOL     1      -4.710   5.057 -19.332  1.00  0.00    -0.266 C 
BRANCH  27  28
ATOM     28  C05 MOL     1      -5.131   5.009 -17.885  1.00  0.00     0.870 C 
ATOM     29  O06 MOL     1      -4.720   4.199 -17.077  1.00  0.00    -0.820 OA
ATOM     30  O07 MOL     1      -5.912   5.930 -17.465  1.00  0.00    -0.676 OA
ENDBRANCH  27  28
ENDBRANCH   2  27
TORSDOF 9
ENDMDL
MODEL 8
REMARK VINA RESULT:      -5.8      2.760      3.436
REMARK  9 active torsions:
REMARK  status: ('A' for Active; 'I' for Inactive)
REMARK    1  A    between atoms: C01_2  and  C02_3 
REMARK    2  A    between atoms: C03_4  and  C04_5 
REMARK    3  A    between atoms: C04_5  and  C05_6 
REMARK    4  A    between atoms: C09_10  and  C0A_11 
REMARK    5  A    between atoms: C0A_11  and  C0B_12 
REMARK       I    between atoms: C0B_12  and  N0C_13 
REMARK    6  A    between atoms: C0E_15  and  C0F_16 
REMARK    7  A    between atoms: C0F_16  and  C0G_17 
REMARK    8  A    between atoms: C0N_23  and  C0O_24 
REMARK    9  A    between atoms: C0O_24  and  N0P_25 
ROOT
ATOM      1  C02 MOL     1       1.789   7.415  -2.964  1.00  0.00    -0.044 C 
ATOM      2  C03 MOL     1       0.489   6.940  -3.181  1.00  0.00     0.129 C 
ATOM      3  C08 MOL     1      -0.693   7.687  -2.785  1.00  0.00    -0.316 C 
ATOM      4  C09 MOL     1      -0.521   8.971  -2.304  1.00  0.00     0.109 C 
ATOM      5  C0E MOL     1       0.714   9.468  -2.003  1.00  0.00    -0.064 C 
ATOM      6  C0N MOL     1       1.859   8.750  -2.422  1.00  0.00    -0.120 C 
ENDROOT
BRANCH   5   7
ATOM      7  C0F MOL     1       0.818  10.845  -1.368  1.00  0.00     0.047 C 
BRANCH   7   8
ATOM      8  C0G MOL     1       0.617  10.999   0.115  1.00  0.00     0.171 C 
ATOM      9  C0M MOL     1       0.527   9.878   0.966  1.00  0.00    -0.195 C 
ATOM     10  C0K MOL     1       0.320  10.036   2.361  1.00  0.00    -0.062 C 
ATOM     11  C0J MOL     1       0.017  11.279   2.924  1.00  0.00    -0.135 C 
ATOM     12  C0I MOL     1       0.081  12.390   2.030  1.00  0.00    -0.071 C 
ATOM     13  C0H MOL     1       0.417  12.208   0.706  1.00  0.00    -0.152 C 
ENDBRANCH   7   8
ENDBRANCH   5   7
BRANCH   6  14
ATOM     14  C0O MOL     1       3.298   9.311  -2.174  1.00  0.00     0.092 C 
BRANCH  14  15
ATOM     15  N0P MOL     1       3.868  10.192  -3.243  1.00  0.00    -0.153 N 
ATOM     16  H0Q MOL     1       3.222  10.280  -4.011  1.00  0.00     0.257 HD
ATOM     17  H0R MOL     1       3.919  11.134  -2.867  1.00  0.00     0.244 HD
ATOM     18  H0S MOL     1       4.749   9.882  -3.628  1.00  0.00     0.246 HD
ENDBRANCH  14  15
ENDBRANCH   6  14
BRANCH   4  19
ATOM     19  C0A MOL     1      -1.807   9.822  -2.185  1.00  0.00    -0.219 C 
BRANCH  19  20
ATOM     20  C0B MOL     1      -2.285  10.491  -3.515  1.00  0.00     0.819 C 
ATOM     21  N0C MOL     1      -1.764  11.639  -3.821  1.00  0.00    -0.993 N 
ATOM     22  H13 MOL     1      -1.046  11.986  -3.189  1.00  0.00     0.395 HD
ATOM     23  H14 MOL     1      -2.093  12.153  -4.618  1.00  0.00     0.440 HD
ATOM     24  O0D MOL     1      -3.049   9.908  -4.263  1.00  0.00    -0.614 OA
ENDBRANCH  19  20
ENDBRANCH   4  19
BRANCH   1  25
ATOM     25  C01 MOL     1       3.057   6.613  -3.331  1.00  0.00    -0.066 C 
ATOM     26  C00 MOL     1       3.526   6.884  -4.841  1.00  0.00    -0.126 C 
ENDBRANCH   1  25
BRANCH   2  27
ATOM     27  C04 MOL     1       0.146   5.575  -3.734  1.00  0.00    -0.266 C 
BRANCH  27  28
ATOM     28  C05 MOL     1       0.235   5.447  -5.234  1.00  0.00     0.870 C 
ATOM     29  O06 MOL     1       0.718   4.493  -5.813  1.00  0.00    -0.820 OA
ATOM     30  O07 MOL     1      -0.304   6.367  -5.939  1.00  0.00    -0.676 OA
ENDBRANCH  27  28
ENDBRANCH   2  27
TORSDOF 9
ENDMDL
MODEL 9
REMARK VINA RESULT:      -5.8     15.090     18.196
REMARK  9 active torsions:
REMARK  status: ('A' for Active; 'I' for Inactive)
REMARK    1  A    between atoms: C01_2  and  C02_3 
REMARK    2  A    between atoms: C03_4  and  C04_5 
REMARK    3  A    between atoms: C04_5  and  C05_6 
REMARK    4  A    between atoms: C09_10  and  C0A_11 
REMARK    5  A    between atoms: C0A_11  and  C0B_12 
REMARK       I    between atoms: C0B_12  and  N0C_13 
REMARK    6  A    between atoms: C0E_15  and  C0F_16 
REMARK    7  A    between atoms: C0F_16  and  C0G_17 
REMARK    8  A    between atoms: C0N_23  and  C0O_24 
REMARK    9  A    between atoms: C0O_24  and  N0P_25 
ROOT
ATOM      1  C02 MOL     1      -4.088   6.652 -19.706  1.00  0.00    -0.044 C 
ATOM      2  C03 MOL     1      -2.713   6.550 -19.961  1.00  0.00     0.129 C 
ATOM      3  C08 MOL     1      -2.072   7.230 -21.073  1.00  0.00    -0.316 C 
ATOM      4  C09 MOL     1      -2.826   8.118 -21.817  1.00  0.00     0.109 C 
ATOM      5  C0E MOL     1      -4.180   8.213 -21.668  1.00  0.00    -0.064 C 
ATOM      6  C0N MOL     1      -4.792   7.574 -20.564  1.00  0.00    -0.120 C 
ENDROOT
BRANCH   5   7
ATOM      7  C0F MOL     1      -4.960   9.125 -22.601  1.00  0.00     0.047 C 
BRANCH   7   8
ATOM      8  C0G MOL     1      -5.562   8.564 -23.861  1.00  0.00     0.171 C 
ATOM      9  C0M MOL     1      -6.718   7.757 -23.828  1.00  0.00    -0.195 C 
ATOM     10  C0K MOL     1      -7.267   7.219 -25.021  1.00  0.00    -0.062 C 
ATOM     11  C0J MOL     1      -6.597   7.310 -26.245  1.00  0.00    -0.135 C 
ATOM     12  C0I MOL     1      -5.411   8.103 -26.239  1.00  0.00    -0.071 C 
ATOM     13  C0H MOL     1      -4.984   8.719 -25.082  1.00  0.00    -0.152 C 
ENDBRANCH   7   8
ENDBRANCH   5   7
BRANCH   6  14
ATOM     14  C0O MOL     1      -6.327   7.715 -20.299  1.00  0.00     0.092 C 
BRANCH  14  15
ATOM     15  N0P MOL     1      -6.734   8.617 -19.174  1.00  0.00    -0.153 N 
ATOM     16  H0Q MOL     1      -7.657   8.986 -19.334  1.00  0.00     0.257 HD
ATOM     17  H0R MOL     1      -6.849   8.039 -18.347  1.00  0.00     0.244 HD
ATOM     18  H0S MOL     1      -6.121   9.403 -19.012  1.00  0.00     0.246 HD
ENDBRANCH  14  15
ENDBRANCH   6  14
BRANCH   4  19
ATOM     19  C0A MOL     1      -2.034   9.030 -22.782  1.00  0.00    -0.219 C 
BRANCH  19  20
ATOM     20  C0B MOL     1      -1.558  10.388 -22.170  1.00  0.00     0.819 C 
ATOM     21  N0C MOL     1      -2.181  11.460 -22.552  1.00  0.00    -0.993 N 
ATOM     22  H13 MOL     1      -2.964  11.320 -23.186  1.00  0.00     0.395 HD
ATOM     23  H14 MOL     1      -1.865  12.366 -22.257  1.00  0.00     0.440 HD
ATOM     24  O0D MOL     1      -0.697  10.413 -21.309  1.00  0.00    -0.614 OA
ENDBRANCH  19  20
ENDBRANCH   4  19
BRANCH   1  25
ATOM     25  C01 MOL     1      -4.796   5.896 -18.561  1.00  0.00    -0.066 C 
ATOM     26  C00 MOL     1      -4.536   4.315 -18.630  1.00  0.00    -0.126 C 
ENDBRANCH   1  25
BRANCH   2  27
ATOM     27  C04 MOL     1      -1.757   5.653 -19.209  1.00  0.00    -0.266 C 
BRANCH  27  28
ATOM     28  C05 MOL     1      -0.484   6.314 -18.744  1.00  0.00     0.870 C 
ATOM     29  O06 MOL     1      -0.433   7.182 -17.894  1.00  0.00    -0.820 OA
ATOM     30  O07 MOL     1       0.618   5.876 -19.220  1.00  0.00    -0.676 OA
ENDBRANCH  27  28
ENDBRANCH   2  27
TORSDOF 9
ENDMDL
MODEL 10
REMARK VINA RESULT:      -5.7      3.515      7.252
REMARK  9 active torsions:
REMARK  status: ('A' for Active; 'I' for Inactive)
REMARK    1  A    between atoms: C01_2  and  C02_3 
REMARK    2  A    between atoms: C03_4  and  C04_5 
REMARK    3  A    between atoms: C04_5  and  C05_6 
REMARK    4  A    between atoms: C09_10  and  C0A_11 
REMARK    5  A    between atoms: C0A_11  and  C0B_12 
REMARK       I    between atoms: C0B_12  and  N0C_13 
REMARK    6  A    between atoms: C0E_15  and  C0F_16 
REMARK    7  A    between atoms: C0F_16  and  C0G_17 
REMARK    8  A    between atoms: C0N_23  and  C0O_24 
REMARK    9  A    between atoms: C0O_24  and  N0P_25 
ROOT
ATOM      1  C02 MOL     1      -0.099   8.395  -2.653  1.00  0.00    -0.044 C 
ATOM      2  C03 MOL     1       1.187   8.805  -2.275  1.00  0.00     0.129 C 
ATOM      3  C08 MOL     1       2.372   8.008  -2.543  1.00  0.00    -0.316 C 
ATOM      4  C09 MOL     1       2.232   6.874  -3.320  1.00  0.00     0.109 C 
ATOM      5  C0E MOL     1       1.006   6.382  -3.662  1.00  0.00    -0.064 C 
ATOM      6  C0N MOL     1      -0.140   7.179  -3.427  1.00  0.00    -0.120 C 
ENDROOT
BRANCH   5   7
ATOM      7  C0F MOL     1       0.926   5.066  -4.419  1.00  0.00     0.047 C 
BRANCH   7   8
ATOM      8  C0G MOL     1       1.111   5.052  -5.913  1.00  0.00     0.171 C 
ATOM      9  C0M MOL     1       1.169   3.843  -6.636  1.00  0.00    -0.195 C 
ATOM     10  C0K MOL     1       1.361   3.843  -8.042  1.00  0.00    -0.062 C 
ATOM     11  C0J MOL     1       1.679   5.011  -8.741  1.00  0.00    -0.135 C 
ATOM     12  C0I MOL     1       1.647   6.215  -7.974  1.00  0.00    -0.071 C 
ATOM     13  C0H MOL     1       1.325   6.185  -6.634  1.00  0.00    -0.152 C 
ENDBRANCH   7   8
ENDBRANCH   5   7
BRANCH   6  14
ATOM     14  C0O MOL     1      -1.561   6.699  -3.870  1.00  0.00     0.092 C 
BRANCH  14  15
ATOM     15  N0P MOL     1      -2.243   5.709  -2.977  1.00  0.00    -0.153 N 
ATOM     16  H0Q MOL     1      -2.915   5.168  -3.497  1.00  0.00     0.257 HD
ATOM     17  H0R MOL     1      -1.550   5.021  -2.698  1.00  0.00     0.244 HD
ATOM     18  H0S MOL     1      -2.729   6.108  -2.186  1.00  0.00     0.246 HD
ENDBRANCH  14  15
ENDBRANCH   6  14
BRANCH   4  19
ATOM     19  C0A MOL     1       3.548   6.237  -3.823  1.00  0.00    -0.219 C 
BRANCH  19  20
ATOM     20  C0B MOL     1       4.438   5.588  -2.713  1.00  0.00     0.819 C 
ATOM     21  N0C MOL     1       4.194   4.351  -2.406  1.00  0.00    -0.993 N 
ATOM     22  H13 MOL     1       3.469   3.890  -2.952  1.00  0.00     0.395 HD
ATOM     23  H14 MOL     1       4.676   3.909  -1.645  1.00  0.00     0.440 HD
ATOM     24  O0D MOL     1       5.372   6.201  -2.229  1.00  0.00    -0.614 OA
ENDBRANCH  19  20
ENDBRANCH   4  19
BRANCH   1  25
ATOM     25  C01 MOL     1      -1.375   9.204  -2.332  1.00  0.00    -0.066 C 
ATOM     26  C00 MOL     1      -1.649  10.355  -3.415  1.00  0.00    -0.126 C 
ENDBRANCH   1  25
BRANCH   2  27
ATOM     27  C04 MOL     1       1.498  10.038  -1.458  1.00  0.00    -0.266 C 
BRANCH  27  28
ATOM     28  C05 MOL     1       1.936  11.243  -2.252  1.00  0.00     0.870 C 
ATOM     29  O06 MOL     1       2.453  12.231  -1.768  1.00  0.00    -0.820 OA
ATOM     30  O07 MOL     1       1.826  11.186  -3.524  1.00  0.00    -0.676 OA
ENDBRANCH  27  28
ENDBRANCH   2  27
TORSDOF 9
ENDMDL
MODEL 11
REMARK VINA RESULT:      -5.7      1.990      2.645
REMARK  9 active torsions:
REMARK  status: ('A' for Active; 'I' for Inactive)
REMARK    1  A    between atoms: C01_2  and  C02_3 
REMARK    2  A    between atoms: C03_4  and  C04_5 
REMARK    3  A    between atoms: C04_5  and  C05_6 
REMARK    4  A    between atoms: C09_10  and  C0A_11 
REMARK    5  A    between atoms: C0A_11  and  C0B_12 
REMARK       I    between atoms: C0B_12  and  N0C_13 
REMARK    6  A    between atoms: C0E_15  and  C0F_16 
REMARK    7  A    between atoms: C0F_16  and  C0G_17 
REMARK    8  A    between atoms: C0N_23  and  C0O_24 
REMARK    9  A    between atoms: C0O_24  and  N0P_25 
ROOT
ATOM      1  C02 MOL     1       1.954   7.221  -4.455  1.00  0.00    -0.044 C 
ATOM      2  C03 MOL     1       0.600   7.065  -4.783  1.00  0.00     0.129 C 
ATOM      3  C08 MOL     1      -0.372   8.132  -4.622  1.00  0.00    -0.316 C 
ATOM      4  C09 MOL     1       0.089   9.385  -4.263  1.00  0.00     0.109 C 
ATOM      5  C0E MOL     1       1.378   9.590  -3.863  1.00  0.00    -0.064 C 
ATOM      6  C0N MOL     1       2.326   8.556  -4.054  1.00  0.00    -0.120 C 
ENDROOT
BRANCH   5   7
ATOM      7  C0F MOL     1       1.785  10.970  -3.370  1.00  0.00     0.047 C 
BRANCH   7   8
ATOM      8  C0G MOL     1       1.712  11.288  -1.902  1.00  0.00     0.171 C 
ATOM      9  C0M MOL     1       0.492  11.625  -1.281  1.00  0.00    -0.195 C 
ATOM     10  C0K MOL     1       0.439  11.940   0.102  1.00  0.00    -0.062 C 
ATOM     11  C0J MOL     1       1.599  12.107   0.863  1.00  0.00    -0.135 C 
ATOM     12  C0I MOL     1       2.822  11.793   0.197  1.00  0.00    -0.071 C 
ATOM     13  C0H MOL     1       2.817  11.362  -1.113  1.00  0.00    -0.152 C 
ENDBRANCH   7   8
ENDBRANCH   5   7
BRANCH   6  14
ATOM     14  C0O MOL     1       3.831   8.765  -3.688  1.00  0.00     0.092 C 
BRANCH  14  15
ATOM     15  N0P MOL     1       4.717   9.301  -4.770  1.00  0.00    -0.153 N 
ATOM     16  H0Q MOL     1       4.899   8.593  -5.462  1.00  0.00     0.257 HD
ATOM     17  H0R MOL     1       4.186  10.000  -5.281  1.00  0.00     0.244 HD
ATOM     18  H0S MOL     1       5.612   9.651  -4.458  1.00  0.00     0.246 HD
ENDBRANCH  14  15
ENDBRANCH   6  14
BRANCH   4  19
ATOM     19  C0A MOL     1      -0.929  10.541  -4.399  1.00  0.00    -0.219 C 
BRANCH  19  20
ATOM     20  C0B MOL     1      -2.307  10.296  -3.703  1.00  0.00     0.819 C 
ATOM     21  N0C MOL     1      -3.353  10.225  -4.469  1.00  0.00    -0.993 N 
ATOM     22  H13 MOL     1      -3.179  10.288  -5.469  1.00  0.00     0.395 HD
ATOM     23  H14 MOL     1      -4.272  10.153  -4.072  1.00  0.00     0.440 HD
ATOM     24  O0D MOL     1      -2.371  10.095  -2.504  1.00  0.00    -0.614 OA
ENDBRANCH  19  20
ENDBRANCH   4  19
BRANCH   1  25
ATOM     25  C01 MOL     1       2.992   6.083  -4.571  1.00  0.00    -0.066 C 
ATOM     26  C00 MOL     1       3.132   5.253  -3.206  1.00  0.00    -0.126 C 
ENDBRANCH   1  25
BRANCH   2  27
ATOM     27  C04 MOL     1      -0.039   5.769  -5.227  1.00  0.00    -0.266 C 
BRANCH  27  28
ATOM     28  C05 MOL     1      -0.515   4.871  -4.112  1.00  0.00     0.870 C 
ATOM     29  O06 MOL     1      -1.187   5.245  -3.171  1.00  0.00    -0.820 OA
ATOM     30  O07 MOL     1      -0.260   3.623  -4.208  1.00  0.00    -0.676 OA
ENDBRANCH  27  28
ENDBRANCH   2  27
TORSDOF 9
ENDMDL
MODEL 12
REMARK VINA RESULT:      -5.7     10.854     14.047
REMARK  9 active torsions:
REMARK  status: ('A' for Active; 'I' for Inactive)
REMARK    1  A    between atoms: C01_2  and  C02_3 
REMARK    2  A    between atoms: C03_4  and  C04_5 
REMARK    3  A    between atoms: C04_5  and  C05_6 
REMARK    4  A    between atoms: C09_10  and  C0A_11 
REMARK    5  A    between atoms: C0A_11  and  C0B_12 
REMARK       I    between atoms: C0B_12  and  N0C_13 
REMARK    6  A    between atoms: C0E_15  and  C0F_16 
REMARK    7  A    between atoms: C0F_16  and  C0G_17 
REMARK    8  A    between atoms: C0N_23  and  C0O_24 
REMARK    9  A    between atoms: C0O_24  and  N0P_25 
ROOT
ATOM      1  C02 MOL     1       0.885   6.196 -20.312  1.00  0.00    -0.044 C 
ATOM      2  C03 MOL     1      -0.263   6.915 -19.952  1.00  0.00     0.129 C 
ATOM      3  C08 MOL     1      -0.451   7.476 -18.625  1.00  0.00    -0.316 C 
ATOM      4  C09 MOL     1       0.605   7.413 -17.736  1.00  0.00     0.109 C 
ATOM      5  C0E MOL     1       1.721   6.671 -17.995  1.00  0.00    -0.064 C 
ATOM      6  C0N MOL     1       1.912   6.156 -19.299  1.00  0.00    -0.120 C 
ENDROOT
BRANCH   5   7
ATOM      7  C0F MOL     1       2.792   6.552 -16.921  1.00  0.00     0.047 C 
BRANCH   7   8
ATOM      8  C0G MOL     1       2.579   5.625 -15.755  1.00  0.00     0.171 C 
ATOM      9  C0M MOL     1       1.497   4.722 -15.721  1.00  0.00    -0.195 C 
ATOM     10  C0K MOL     1       1.296   3.866 -14.608  1.00  0.00    -0.062 C 
ATOM     11  C0J MOL     1       2.042   3.999 -13.433  1.00  0.00    -0.135 C 
ATOM     12  C0I MOL     1       3.108   4.947 -13.486  1.00  0.00    -0.071 C 
ATOM     13  C0H MOL     1       3.351   5.666 -14.637  1.00  0.00    -0.152 C 
ENDBRANCH   7   8
ENDBRANCH   5   7
BRANCH   6  14
ATOM     14  C0O MOL     1       3.209   5.366 -19.673  1.00  0.00     0.092 C 
BRANCH  14  15
ATOM     15  N0P MOL     1       4.351   6.170 -20.215  1.00  0.00    -0.153 N 
ATOM     16  H0Q MOL     1       5.127   6.159 -19.574  1.00  0.00     0.257 HD
ATOM     17  H0R MOL     1       4.709   5.680 -21.030  1.00  0.00     0.244 HD
ATOM     18  H0S MOL     1       4.139   7.138 -20.411  1.00  0.00     0.246 HD
ENDBRANCH  14  15
ENDBRANCH   6  14
BRANCH   4  19
ATOM     19  C0A MOL     1       0.465   8.278 -16.463  1.00  0.00    -0.219 C 
BRANCH  19  20
ATOM     20  C0B MOL     1       0.947   9.758 -16.610  1.00  0.00     0.819 C 
ATOM     21  N0C MOL     1       0.447  10.450 -17.588  1.00  0.00    -0.993 N 
ATOM     22  H13 MOL     1      -0.257   9.980 -18.152  1.00  0.00     0.395 HD
ATOM     23  H14 MOL     1       0.782  11.376 -17.781  1.00  0.00     0.440 HD
ATOM     24  O0D MOL     1       1.693  10.254 -15.784  1.00  0.00    -0.614 OA
ENDBRANCH  19  20
ENDBRANCH   4  19
BRANCH   1  25
ATOM     25  C01 MOL     1       1.080   5.549 -21.701  1.00  0.00    -0.066 C 
ATOM     26  C00 MOL     1       1.602   6.605 -22.790  1.00  0.00    -0.126 C 
ENDBRANCH   1  25
BRANCH   2  27
ATOM     27  C04 MOL     1      -1.479   7.101 -20.831  1.00  0.00    -0.266 C 
BRANCH  27  28
ATOM     28  C05 MOL     1      -2.806   6.871 -20.152  1.00  0.00     0.870 C 
ATOM     29  O06 MOL     1      -3.143   5.818 -19.646  1.00  0.00    -0.820 OA
ATOM     30  O07 MOL     1      -3.592   7.871 -20.035  1.00  0.00    -0.676 OA
ENDBRANCH  27  28
ENDBRANCH   2  27
TORSDOF 9
ENDMDL
MODEL 13
REMARK VINA RESULT:      -5.6      3.872      6.635
REMARK  9 active torsions:
REMARK  status: ('A' for Active; 'I' for Inactive)
REMARK    1  A    between atoms: C01_2  and  C02_3 
REMARK    2  A    between atoms: C03_4  and  C04_5 
REMARK    3  A    between atoms: C04_5  and  C05_6 
REMARK    4  A    between atoms: C09_10  and  C0A_11 
REMARK    5  A    between atoms: C0A_11  and  C0B_12 
REMARK       I    between atoms: C0B_12  and  N0C_13 
REMARK    6  A    between atoms: C0E_15  and  C0F_16 
REMARK    7  A    between atoms: C0F_16  and  C0G_17 
REMARK    8  A    between atoms: C0N_23  and  C0O_24 
REMARK    9  A    between atoms: C0O_24  and  N0P_25 
ROOT
ATOM      1  C02 MOL     1       2.287  10.577   0.201  1.00  0.00    -0.044 C 
ATOM      2  C03 MOL     1       1.063  11.233   0.393  1.00  0.00     0.129 C 
ATOM      3  C08 MOL     1       0.213  11.642  -0.712  1.00  0.00    -0.316 C 
ATOM      4  C09 MOL     1       0.565  11.243  -1.987  1.00  0.00     0.109 C 
ATOM      5  C0E MOL     1       1.773  10.665  -2.253  1.00  0.00    -0.064 C 
ATOM      6  C0N MOL     1       2.580  10.240  -1.171  1.00  0.00    -0.120 C 
ENDROOT
BRANCH   5   7
ATOM      7  C0F MOL     1       2.141  10.360  -3.696  1.00  0.00     0.047 C 
BRANCH   7   8
ATOM      8  C0G MOL     1       3.192  11.185  -4.388  1.00  0.00     0.171 C 
ATOM      9  C0M MOL     1       3.635  10.871  -5.690  1.00  0.00    -0.195 C 
ATOM     10  C0K MOL     1       4.640  11.646  -6.325  1.00  0.00    -0.062 C 
ATOM     11  C0J MOL     1       5.355  12.629  -5.637  1.00  0.00    -0.135 C 
ATOM     12  C0I MOL     1       4.907  12.900  -4.309  1.00  0.00    -0.071 C 
ATOM     13  C0H MOL     1       3.838  12.212  -3.775  1.00  0.00    -0.152 C 
ENDBRANCH   7   8
ENDBRANCH   5   7
BRANCH   6  14
ATOM     14  C0O MOL     1       3.936   9.502  -1.417  1.00  0.00     0.092 C 
BRANCH  14  15
ATOM     15  N0P MOL     1       3.877   8.009  -1.525  1.00  0.00    -0.153 N 
ATOM     16  H0Q MOL     1       4.553   7.676  -2.192  1.00  0.00     0.257 HD
ATOM     17  H0R MOL     1       4.205   7.626  -0.644  1.00  0.00     0.244 HD
ATOM     18  H0S MOL     1       2.979   7.634  -1.797  1.00  0.00     0.246 HD
ENDBRANCH  14  15
ENDBRANCH   6  14
BRANCH   4  19
ATOM     19  C0A MOL     1      -0.515  11.440  -3.076  1.00  0.00    -0.219 C 
BRANCH  19  20
ATOM     20  C0B MOL     1      -1.525  10.257  -3.230  1.00  0.00     0.819 C 
ATOM     21  N0C MOL     1      -1.587   9.678  -4.389  1.00  0.00    -0.993 N 
ATOM     22  H13 MOL     1      -0.932  10.014  -5.092  1.00  0.00     0.395 HD
ATOM     23  H14 MOL     1      -2.275   8.970  -4.570  1.00  0.00     0.440 HD
ATOM     24  O0D MOL     1      -2.157   9.852  -2.271  1.00  0.00    -0.614 OA
ENDBRANCH  19  20
ENDBRANCH   4  19
BRANCH   1  25
ATOM     25  C01 MOL     1       3.227  10.180   1.360  1.00  0.00    -0.066 C 
ATOM     26  C00 MOL     1       4.210  11.378   1.777  1.00  0.00    -0.126 C 
ENDBRANCH   1  25
BRANCH   2  27
ATOM     27  C04 MOL     1       0.529  11.695   1.730  1.00  0.00    -0.266 C 
BRANCH  27  28
ATOM     28  C05 MOL     1      -0.223  10.653   2.519  1.00  0.00     0.870 C 
ATOM     29  O06 MOL     1      -0.056   9.454   2.404  1.00  0.00    -0.820 OA
ATOM     30  O07 MOL     1      -1.030  11.061   3.421  1.00  0.00    -0.676 OA
ENDBRANCH  27  28
ENDBRANCH   2  27
TORSDOF 9
ENDMDL
MODEL 14
REMARK VINA RESULT:      -5.6     14.177     17.738
REMARK  9 active torsions:
REMARK  status: ('A' for Active; 'I' for Inactive)
REMARK    1  A    between atoms: C01_2  and  C02_3 
REMARK    2  A    between atoms: C03_4  and  C04_5 
REMARK    3  A    between atoms: C04_5  and  C05_6 
REMARK    4  A    between atoms: C09_10  and  C0A_11 
REMARK    5  A    between atoms: C0A_11  and  C0B_12 
REMARK       I    between atoms: C0B_12  and  N0C_13 
REMARK    6  A    between atoms: C0E_15  and  C0F_16 
REMARK    7  A    between atoms: C0F_16  and  C0G_17 
REMARK    8  A    between atoms: C0N_23  and  C0O_24 
REMARK    9  A    between atoms: C0O_24  and  N0P_25 
ROOT
ATOM      1  C02 MOL     1      -3.444   8.458 -21.989  1.00  0.00    -0.044 C 
ATOM      2  C03 MOL     1      -3.894   7.591 -20.984  1.00  0.00     0.129 C 
ATOM      3  C08 MOL     1      -3.007   6.675 -20.287  1.00  0.00    -0.316 C 
ATOM      4  C09 MOL     1      -1.650   6.768 -20.534  1.00  0.00     0.109 C 
ATOM      5  C0E MOL     1      -1.153   7.538 -21.545  1.00  0.00    -0.064 C 
ATOM      6  C0N MOL     1      -2.017   8.451 -22.196  1.00  0.00    -0.120 C 
ENDROOT
BRANCH   5   7
ATOM      7  C0F MOL     1       0.340   7.501 -21.833  1.00  0.00     0.047 C 
BRANCH   7   8
ATOM      8  C0G MOL     1       0.882   6.508 -22.825  1.00  0.00     0.171 C 
ATOM      9  C0M MOL     1       1.009   6.829 -24.193  1.00  0.00    -0.195 C 
ATOM     10  C0K MOL     1       1.506   5.879 -25.122  1.00  0.00    -0.062 C 
ATOM     11  C0J MOL     1       1.720   4.544 -24.766  1.00  0.00    -0.135 C 
ATOM     12  C0I MOL     1       1.549   4.242 -23.382  1.00  0.00    -0.071 C 
ATOM     13  C0H MOL     1       1.192   5.229 -22.487  1.00  0.00    -0.152 C 
ENDBRANCH   7   8
ENDBRANCH   5   7
BRANCH   6  14
ATOM     14  C0O MOL     1      -1.483   9.414 -23.306  1.00  0.00     0.092 C 
BRANCH  14  15
ATOM     15  N0P MOL     1      -0.981  10.750 -22.852  1.00  0.00    -0.153 N 
ATOM     16  H0Q MOL     1      -0.097  10.654 -22.380  1.00  0.00     0.257 HD
ATOM     17  H0R MOL     1      -0.750  11.287 -23.682  1.00  0.00     0.244 HD
ATOM     18  H0S MOL     1      -1.600  11.251 -22.230  1.00  0.00     0.246 HD
ENDBRANCH  14  15
ENDBRANCH   6  14
BRANCH   4  19
ATOM     19  C0A MOL     1      -0.735   5.992 -19.558  1.00  0.00    -0.219 C 
BRANCH  19  20
ATOM     20  C0B MOL     1      -0.452   6.712 -18.199  1.00  0.00     0.819 C 
ATOM     21  N0C MOL     1      -0.523   5.992 -17.122  1.00  0.00    -0.993 N 
ATOM     22  H13 MOL     1      -0.711   5.001 -17.258  1.00  0.00     0.395 HD
ATOM     23  H14 MOL     1      -0.434   6.417 -16.217  1.00  0.00     0.440 HD
ATOM     24  O0D MOL     1      -0.097   7.876 -18.175  1.00  0.00    -0.614 OA
ENDBRANCH  19  20
ENDBRANCH   4  19
BRANCH   1  25
ATOM     25  C01 MOL     1      -4.380   9.402 -22.775  1.00  0.00    -0.066 C 
ATOM     26  C00 MOL     1      -5.093   8.658 -24.005  1.00  0.00    -0.126 C 
ENDBRANCH   1  25
BRANCH   2  27
ATOM     27  C04 MOL     1      -5.339   7.410 -20.579  1.00  0.00    -0.266 C 
BRANCH  27  28
ATOM     28  C05 MOL     1      -5.764   8.173 -19.349  1.00  0.00     0.870 C 
ATOM     29  O06 MOL     1      -6.458   7.713 -18.463  1.00  0.00    -0.820 OA
ATOM     30  O07 MOL     1      -5.298   9.352 -19.194  1.00  0.00    -0.676 OA
ENDBRANCH  27  28
ENDBRANCH   2  27
TORSDOF 9
ENDMDL
MODEL 15
REMARK VINA RESULT:      -5.6      8.765     11.907
REMARK  9 active torsions:
REMARK  status: ('A' for Active; 'I' for Inactive)
REMARK    1  A    between atoms: C01_2  and  C02_3 
REMARK    2  A    between atoms: C03_4  and  C04_5 
REMARK    3  A    between atoms: C04_5  and  C05_6 
REMARK    4  A    between atoms: C09_10  and  C0A_11 
REMARK    5  A    between atoms: C0A_11  and  C0B_12 
REMARK       I    between atoms: C0B_12  and  N0C_13 
REMARK    6  A    between atoms: C0E_15  and  C0F_16 
REMARK    7  A    between atoms: C0F_16  and  C0G_17 
REMARK    8  A    between atoms: C0N_23  and  C0O_24 
REMARK    9  A    between atoms: C0O_24  and  N0P_25 
ROOT
ATOM      1  C02 MOL     1      -2.446  12.579   5.831  1.00  0.00    -0.044 C 
ATOM      2  C03 MOL     1      -2.534  13.528   4.803  1.00  0.00     0.129 C 
ATOM      3  C08 MOL     1      -1.698  13.475   3.617  1.00  0.00    -0.316 C 
ATOM      4  C09 MOL     1      -0.886  12.370   3.440  1.00  0.00     0.109 C 
ATOM      5  C0E MOL     1      -0.700  11.448   4.429  1.00  0.00    -0.064 C 
ATOM      6  C0N MOL     1      -1.542  11.487   5.566  1.00  0.00    -0.120 C 
ENDROOT
BRANCH   5   7
ATOM      7  C0F MOL     1       0.297  10.322   4.207  1.00  0.00     0.047 C 
BRANCH   7   8
ATOM      8  C0G MOL     1       1.649  10.383   4.864  1.00  0.00     0.171 C 
ATOM      9  C0M MOL     1       2.182   9.276   5.557  1.00  0.00    -0.195 C 
ATOM     10  C0K MOL     1       3.450   9.352   6.188  1.00  0.00    -0.062 C 
ATOM     11  C0J MOL     1       4.142  10.561   6.307  1.00  0.00    -0.135 C 
ATOM     12  C0I MOL     1       3.560  11.671   5.625  1.00  0.00    -0.071 C 
ATOM     13  C0H MOL     1       2.390  11.522   4.910  1.00  0.00    -0.152 C 
ENDBRANCH   7   8
ENDBRANCH   5   7
BRANCH   6  14
ATOM     14  C0O MOL     1      -1.426  10.408   6.692  1.00  0.00     0.092 C 
BRANCH  14  15
ATOM     15  N0P MOL     1      -0.427  10.674   7.776  1.00  0.00    -0.153 N 
ATOM     16  H0Q MOL     1      -0.325  11.664   7.928  1.00  0.00     0.257 HD
ATOM     17  H0R MOL     1      -0.827  10.340   8.648  1.00  0.00     0.244 HD
ATOM     18  H0S MOL     1       0.497  10.300   7.609  1.00  0.00     0.246 HD
ENDBRANCH  14  15
ENDBRANCH   6  14
BRANCH   4  19
ATOM     19  C0A MOL     1      -0.253  12.218   2.037  1.00  0.00    -0.219 C 
BRANCH  19  20
ATOM     20  C0B MOL     1       0.428  13.507   1.474  1.00  0.00     0.819 C 
ATOM     21  N0C MOL     1       1.282  14.111   2.243  1.00  0.00    -0.993 N 
ATOM     22  H13 MOL     1       1.472  13.663   3.136  1.00  0.00     0.395 HD
ATOM     23  H14 MOL     1       1.687  14.986   1.967  1.00  0.00     0.440 HD
ATOM     24  O0D MOL     1       0.223  13.868   0.329  1.00  0.00    -0.614 OA
ENDBRANCH  19  20
ENDBRANCH   4  19
BRANCH   1  25
ATOM     25  C01 MOL     1      -3.291  12.648   7.122  1.00  0.00    -0.066 C 
ATOM     26  C00 MOL     1      -4.562  11.671   7.064  1.00  0.00    -0.126 C 
ENDBRANCH   1  25
BRANCH   2  27
ATOM     27  C04 MOL     1      -3.403  14.764   4.838  1.00  0.00    -0.266 C 
BRANCH  27  28
ATOM     28  C05 MOL     1      -4.814  14.575   4.339  1.00  0.00     0.870 C 
ATOM     29  O06 MOL     1      -5.125  14.528   3.164  1.00  0.00    -0.820 OA
ATOM     30  O07 MOL     1      -5.727  14.372   5.209  1.00  0.00    -0.676 OA
ENDBRANCH  27  28
ENDBRANCH   2  27
TORSDOF 9
ENDMDL
MODEL 16
REMARK VINA RESULT:      -5.6      3.354      6.367
REMARK  9 active torsions:
REMARK  status: ('A' for Active; 'I' for Inactive)
REMARK    1  A    between atoms: C01_2  and  C02_3 
REMARK    2  A    between atoms: C03_4  and  C04_5 
REMARK    3  A    between atoms: C04_5  and  C05_6 
REMARK    4  A    between atoms: C09_10  and  C0A_11 
REMARK    5  A    between atoms: C0A_11  and  C0B_12 
REMARK       I    between atoms: C0B_12  and  N0C_13 
REMARK    6  A    between atoms: C0E_15  and  C0F_16 
REMARK    7  A    between atoms: C0F_16  and  C0G_17 
REMARK    8  A    between atoms: C0N_23  and  C0O_24 
REMARK    9  A    between atoms: C0O_24  and  N0P_25 
ROOT
ATOM      1  C02 MOL     1       1.309  10.907  -1.823  1.00  0.00    -0.044 C 
ATOM      2  C03 MOL     1       0.372  10.896  -2.866  1.00  0.00     0.129 C 
ATOM      3  C08 MOL     1       0.731  10.570  -4.235  1.00  0.00    -0.316 C 
ATOM      4  C09 MOL     1       2.015  10.122  -4.484  1.00  0.00     0.109 C 
ATOM      5  C0E MOL     1       2.992  10.174  -3.533  1.00  0.00    -0.064 C 
ATOM      6  C0N MOL     1       2.629  10.460  -2.195  1.00  0.00    -0.120 C 
ENDROOT
BRANCH   5   7
ATOM      7  C0F MOL     1       4.409   9.773  -3.911  1.00  0.00     0.047 C 
BRANCH   7   8
ATOM      8  C0G MOL     1       5.217  10.659  -4.821  1.00  0.00     0.171 C 
ATOM      9  C0M MOL     1       5.221  12.061  -4.669  1.00  0.00    -0.195 C 
ATOM     10  C0K MOL     1       5.973  12.887  -5.544  1.00  0.00    -0.062 C 
ATOM     11  C0J MOL     1       6.589  12.376  -6.690  1.00  0.00    -0.135 C 
ATOM     12  C0I MOL     1       6.537  10.957  -6.835  1.00  0.00    -0.071 C 
ATOM     13  C0H MOL     1       5.907  10.177  -5.888  1.00  0.00    -0.152 C 
ENDBRANCH   7   8
ENDBRANCH   5   7
BRANCH   6  14
ATOM     14  C0O MOL     1       3.695  10.454  -1.051  1.00  0.00     0.092 C 
BRANCH  14  15
ATOM     15  N0P MOL     1       3.879   9.164  -0.311  1.00  0.00    -0.153 N 
ATOM     16  H0Q MOL     1       4.559   8.585  -0.774  1.00  0.00     0.257 HD
ATOM     17  H0R MOL     1       4.318   9.383   0.578  1.00  0.00     0.244 HD
ATOM     18  H0S MOL     1       3.041   8.611  -0.200  1.00  0.00     0.246 HD
ENDBRANCH  14  15
ENDBRANCH   6  14
BRANCH   4  19
ATOM     19  C0A MOL     1       2.254   9.508  -5.883  1.00  0.00    -0.219 C 
BRANCH  19  20
ATOM     20  C0B MOL     1       2.120  10.508  -7.078  1.00  0.00     0.819 C 
ATOM     21  N0C MOL     1       1.263  10.211  -8.005  1.00  0.00    -0.993 N 
ATOM     22  H13 MOL     1       0.712   9.370  -7.851  1.00  0.00     0.395 HD
ATOM     23  H14 MOL     1       1.195  10.771  -8.835  1.00  0.00     0.440 HD
ATOM     24  O0D MOL     1       2.736  11.558  -7.080  1.00  0.00    -0.614 OA
ENDBRANCH  19  20
ENDBRANCH   4  19
BRANCH   1  25
ATOM     25  C01 MOL     1       0.956  11.300  -0.372  1.00  0.00    -0.066 C 
ATOM     26  C00 MOL     1       1.051  12.884  -0.135  1.00  0.00    -0.126 C 
ENDBRANCH   1  25
BRANCH   2  27
ATOM     27  C04 MOL     1      -1.073  11.322  -2.737  1.00  0.00    -0.266 C 
BRANCH  27  28
ATOM     28  C05 MOL     1      -2.077  10.197  -2.722  1.00  0.00     0.870 C 
ATOM     29  O06 MOL     1      -2.815   9.925  -3.649  1.00  0.00    -0.820 OA
ATOM     30  O07 MOL     1      -2.096   9.435  -1.697  1.00  0.00    -0.676 OA
ENDBRANCH  27  28
ENDBRANCH   2  27
TORSDOF 9
ENDMDL
MODEL 17
REMARK VINA RESULT:      -5.5     14.870     17.779
REMARK  9 active torsions:
REMARK  status: ('A' for Active; 'I' for Inactive)
REMARK    1  A    between atoms: C01_2  and  C02_3 
REMARK    2  A    between atoms: C03_4  and  C04_5 
REMARK    3  A    between atoms: C04_5  and  C05_6 
REMARK    4  A    between atoms: C09_10  and  C0A_11 
REMARK    5  A    between atoms: C0A_11  and  C0B_12 
REMARK       I    between atoms: C0B_12  and  N0C_13 
REMARK    6  A    between atoms: C0E_15  and  C0F_16 
REMARK    7  A    between atoms: C0F_16  and  C0G_17 
REMARK    8  A    between atoms: C0N_23  and  C0O_24 
REMARK    9  A    between atoms: C0O_24  and  N0P_25 
ROOT
ATOM      1  C02 MOL     1      -1.165   7.827 -21.526  1.00  0.00    -0.044 C 
ATOM      2  C03 MOL     1      -1.494   6.895 -20.531  1.00  0.00     0.129 C 
ATOM      3  C08 MOL     1      -2.858   6.685 -20.078  1.00  0.00    -0.316 C 
ATOM      4  C09 MOL     1      -3.877   7.331 -20.754  1.00  0.00     0.109 C 
ATOM      5  C0E MOL     1      -3.624   8.300 -21.681  1.00  0.00    -0.064 C 
ATOM      6  C0N MOL     1      -2.297   8.476 -22.141  1.00  0.00    -0.120 C 
ENDROOT
BRANCH   5   7
ATOM      7  C0F MOL     1      -4.793   9.051 -22.299  1.00  0.00     0.047 C 
BRANCH   7   8
ATOM      8  C0G MOL     1      -5.476   8.494 -23.518  1.00  0.00     0.171 C 
ATOM      9  C0M MOL     1      -5.018   8.791 -24.818  1.00  0.00    -0.195 C 
ATOM     10  C0K MOL     1      -5.681   8.274 -25.961  1.00  0.00    -0.062 C 
ATOM     11  C0J MOL     1      -6.905   7.606 -25.862  1.00  0.00    -0.135 C 
ATOM     12  C0I MOL     1      -7.360   7.351 -24.534  1.00  0.00    -0.071 C 
ATOM     13  C0H MOL     1      -6.616   7.757 -23.446  1.00  0.00    -0.152 C 
ENDBRANCH   7   8
ENDBRANCH   5   7
BRANCH   6  14
ATOM     14  C0O MOL     1      -1.962   9.516 -23.259  1.00  0.00     0.092 C 
BRANCH  14  15
ATOM     15  N0P MOL     1      -1.787  10.938 -22.822  1.00  0.00    -0.153 N 
ATOM     16  H0Q MOL     1      -2.162  11.073 -21.898  1.00  0.00     0.257 HD
ATOM     17  H0R MOL     1      -0.792  11.100 -22.701  1.00  0.00     0.244 HD
ATOM     18  H0S MOL     1      -2.218  11.627 -23.423  1.00  0.00     0.246 HD
ENDBRANCH  14  15
ENDBRANCH   6  14
BRANCH   4  19
ATOM     19  C0A MOL     1      -5.309   6.846 -20.434  1.00  0.00    -0.219 C 
BRANCH  19  20
ATOM     20  C0B MOL     1      -5.884   7.332 -19.063  1.00  0.00     0.819 C 
ATOM     21  N0C MOL     1      -6.524   8.461 -19.056  1.00  0.00    -0.993 N 
ATOM     22  H13 MOL     1      -6.639   8.915 -19.959  1.00  0.00     0.395 HD
ATOM     23  H14 MOL     1      -6.841   8.862 -18.193  1.00  0.00     0.440 HD
ATOM     24  O0D MOL     1      -5.803   6.630 -18.072  1.00  0.00    -0.614 OA
ENDBRANCH  19  20
ENDBRANCH   4  19
BRANCH   1  25
ATOM     25  C01 MOL     1       0.284   8.100 -21.984  1.00  0.00    -0.066 C 
ATOM     26  C00 MOL     1       0.776   7.048 -23.091  1.00  0.00    -0.126 C 
ENDBRANCH   1  25
BRANCH   2  27
ATOM     27  C04 MOL     1      -0.494   6.088 -19.735  1.00  0.00    -0.266 C 
BRANCH  27  28
ATOM     28  C05 MOL     1      -0.246   6.575 -18.330  1.00  0.00     0.870 C 
ATOM     29  O06 MOL     1      -0.187   7.747 -18.011  1.00  0.00    -0.820 OA
ATOM     30  O07 MOL     1      -0.172   5.698 -17.404  1.00  0.00    -0.676 OA
ENDBRANCH  27  28
ENDBRANCH   2  27
TORSDOF 9
ENDMDL
MODEL 18
REMARK VINA RESULT:      -5.5     15.035     18.446
REMARK  9 active torsions:
REMARK  status: ('A' for Active; 'I' for Inactive)
REMARK    1  A    between atoms: C01_2  and  C02_3 
REMARK    2  A    between atoms: C03_4  and  C04_5 
REMARK    3  A    between atoms: C04_5  and  C05_6 
REMARK    4  A    between atoms: C09_10  and  C0A_11 
REMARK    5  A    between atoms: C0A_11  and  C0B_12 
REMARK       I    between atoms: C0B_12  and  N0C_13 
REMARK    6  A    between atoms: C0E_15  and  C0F_16 
REMARK    7  A    between atoms: C0F_16  and  C0G_17 
REMARK    8  A    between atoms: C0N_23  and  C0O_24 
REMARK    9  A    between atoms: C0O_24  and  N0P_25 
ROOT
ATOM      1  C02 MOL     1     -11.664  -6.143  -0.175  1.00  0.00    -0.044 C 
ATOM      2  C03 MOL     1     -10.597  -5.543   0.509  1.00  0.00     0.129 C 
ATOM      3  C08 MOL     1      -9.549  -4.803  -0.173  1.00  0.00    -0.316 C 
ATOM      4  C09 MOL     1      -9.692  -4.569  -1.528  1.00  0.00     0.109 C 
ATOM      5  C0E MOL     1     -10.665  -5.180  -2.265  1.00  0.00    -0.064 C 
ATOM      6  C0N MOL     1     -11.700  -5.871  -1.591  1.00  0.00    -0.120 C 
ENDROOT
BRANCH   5   7
ATOM      7  C0F MOL     1     -10.689  -4.968  -3.770  1.00  0.00     0.047 C 
BRANCH   7   8
ATOM      8  C0G MOL     1     -11.666  -3.993  -4.370  1.00  0.00     0.171 C 
ATOM      9  C0M MOL     1     -12.768  -4.431  -5.133  1.00  0.00    -0.195 C 
ATOM     10  C0K MOL     1     -13.673  -3.501  -5.709  1.00  0.00    -0.062 C 
ATOM     11  C0J MOL     1     -13.419  -2.126  -5.700  1.00  0.00    -0.135 C 
ATOM     12  C0I MOL     1     -12.276  -1.717  -4.950  1.00  0.00    -0.071 C 
ATOM     13  C0H MOL     1     -11.496  -2.646  -4.294  1.00  0.00    -0.152 C 
ENDBRANCH   7   8
ENDBRANCH   5   7
BRANCH   6  14
ATOM     14  C0O MOL     1     -12.882  -6.521  -2.381  1.00  0.00     0.092 C 
BRANCH  14  15
ATOM     15  N0P MOL     1     -12.625  -7.865  -2.990  1.00  0.00    -0.153 N 
ATOM     16  H0Q MOL     1     -13.491  -8.356  -3.143  1.00  0.00     0.257 HD
ATOM     17  H0R MOL     1     -12.269  -7.711  -3.929  1.00  0.00     0.244 HD
ATOM     18  H0S MOL     1     -12.028  -8.474  -2.447  1.00  0.00     0.246 HD
ENDBRANCH  14  15
ENDBRANCH   6  14
BRANCH   4  19
ATOM     19  C0A MOL     1      -8.719  -3.534  -2.137  1.00  0.00    -0.219 C 
BRANCH  19  20
ATOM     20  C0B MOL     1      -7.202  -3.889  -2.005  1.00  0.00     0.819 C 
ATOM     21  N0C MOL     1      -6.418  -2.970  -1.531  1.00  0.00    -0.993 N 
ATOM     22  H13 MOL     1      -6.868  -2.106  -1.240  1.00  0.00     0.395 HD
ATOM     23  H14 MOL     1      -5.425  -3.113  -1.502  1.00  0.00     0.440 HD
ATOM     24  O0D MOL     1      -6.803  -5.012  -2.256  1.00  0.00    -0.614 OA
ENDBRANCH  19  20
ENDBRANCH   4  19
BRANCH   1  25
ATOM     25  C01 MOL     1     -12.759  -6.976   0.527  1.00  0.00    -0.066 C 
ATOM     26  C00 MOL     1     -13.895  -6.052   1.179  1.00  0.00    -0.126 C 
ENDBRANCH   1  25
BRANCH   2  27
ATOM     27  C04 MOL     1     -10.334  -5.678   1.991  1.00  0.00    -0.266 C 
BRANCH  27  28
ATOM     28  C05 MOL     1     -10.347  -4.385   2.768  1.00  0.00     0.870 C 
ATOM     29  O06 MOL     1      -9.627  -4.150   3.719  1.00  0.00    -0.820 OA
ATOM     30  O07 MOL     1     -11.109  -3.450   2.348  1.00  0.00    -0.676 OA
ENDBRANCH  27  28
ENDBRANCH   2  27
TORSDOF 9
ENDMDL
MODEL 19
REMARK VINA RESULT:      -5.4     17.714     20.901
REMARK  9 active torsions:
REMARK  status: ('A' for Active; 'I' for Inactive)
REMARK    1  A    between atoms: C01_2  and  C02_3 
REMARK    2  A    between atoms: C03_4  and  C04_5 
REMARK    3  A    between atoms: C04_5  and  C05_6 
REMARK    4  A    between atoms: C09_10  and  C0A_11 
REMARK    5  A    between atoms: C0A_11  and  C0B_12 
REMARK       I    between atoms: C0B_12  and  N0C_13 
REMARK    6  A    between atoms: C0E_15  and  C0F_16 
REMARK    7  A    between atoms: C0F_16  and  C0G_17 
REMARK    8  A    between atoms: C0N_23  and  C0O_24 
REMARK    9  A    between atoms: C0O_24  and  N0P_25 
ROOT
ATOM      1  C02 MOL     1      -5.075   8.396 -22.274  1.00  0.00    -0.044 C 
ATOM      2  C03 MOL     1      -3.960   9.220 -22.069  1.00  0.00     0.129 C 
ATOM      3  C08 MOL     1      -3.268   9.886 -23.160  1.00  0.00    -0.316 C 
ATOM      4  C09 MOL     1      -3.820   9.809 -24.425  1.00  0.00     0.109 C 
ATOM      5  C0E MOL     1      -4.860   8.972 -24.707  1.00  0.00    -0.064 C 
ATOM      6  C0N MOL     1      -5.549   8.353 -23.636  1.00  0.00    -0.120 C 
ENDROOT
BRANCH   5   7
ATOM      7  C0F MOL     1      -5.339   8.852 -26.145  1.00  0.00     0.047 C 
BRANCH   7   8
ATOM      8  C0G MOL     1      -4.907   7.676 -26.979  1.00  0.00     0.171 C 
ATOM      9  C0M MOL     1      -5.841   6.739 -27.468  1.00  0.00    -0.195 C 
ATOM     10  C0K MOL     1      -5.420   5.624 -28.239  1.00  0.00    -0.062 C 
ATOM     11  C0J MOL     1      -4.068   5.307 -28.396  1.00  0.00    -0.135 C 
ATOM     12  C0I MOL     1      -3.147   6.256 -27.859  1.00  0.00    -0.071 C 
ATOM     13  C0H MOL     1      -3.601   7.397 -27.231  1.00  0.00    -0.152 C 
ENDBRANCH   7   8
ENDBRANCH   5   7
BRANCH   6  14
ATOM     14  C0O MOL     1      -6.797   7.448 -23.897  1.00  0.00     0.092 C 
BRANCH  14  15
ATOM     15  N0P MOL     1      -8.119   8.142 -24.008  1.00  0.00    -0.153 N 
ATOM     16  H0Q MOL     1      -7.989   9.121 -24.207  1.00  0.00     0.257 HD
ATOM     17  H0R MOL     1      -8.579   7.790 -24.842  1.00  0.00     0.244 HD
ATOM     18  H0S MOL     1      -8.707   8.079 -23.189  1.00  0.00     0.246 HD
ENDBRANCH  14  15
ENDBRANCH   6  14
BRANCH   4  19
ATOM     19  C0A MOL     1      -3.223  10.770 -25.478  1.00  0.00    -0.219 C 
BRANCH  19  20
ATOM     20  C0B MOL     1      -3.454  12.291 -25.195  1.00  0.00     0.819 C 
ATOM     21  N0C MOL     1      -4.669  12.735 -25.299  1.00  0.00    -0.993 N 
ATOM     22  H13 MOL     1      -5.381  12.040 -25.510  1.00  0.00     0.395 HD
ATOM     23  H14 MOL     1      -4.863  13.715 -25.211  1.00  0.00     0.440 HD
ATOM     24  O0D MOL     1      -2.539  12.997 -24.811  1.00  0.00    -0.614 OA
ENDBRANCH  19  20
ENDBRANCH   4  19
BRANCH   1  25
ATOM     25  C01 MOL     1      -5.792   7.641 -21.134  1.00  0.00    -0.066 C 
ATOM     26  C00 MOL     1      -5.030   6.287 -20.735  1.00  0.00    -0.126 C 
ENDBRANCH   1  25
BRANCH   2  27
ATOM     27  C04 MOL     1      -3.272   9.432 -20.740  1.00  0.00    -0.266 C 
BRANCH  27  28
ATOM     28  C05 MOL     1      -1.879   8.864 -20.637  1.00  0.00     0.870 C 
ATOM     29  O06 MOL     1      -0.904   9.500 -20.286  1.00  0.00    -0.820 OA
ATOM     30  O07 MOL     1      -1.731   7.615 -20.860  1.00  0.00    -0.676 OA
ENDBRANCH  27  28
ENDBRANCH   2  27
TORSDOF 9
ENDMDL
MODEL 20
REMARK VINA RESULT:      -5.2      4.392      7.646
REMARK  9 active torsions:
REMARK  status: ('A' for Active; 'I' for Inactive)
REMARK    1  A    between atoms: C01_2  and  C02_3 
REMARK    2  A    between atoms: C03_4  and  C04_5 
REMARK    3  A    between atoms: C04_5  and  C05_6 
REMARK    4  A    between atoms: C09_10  and  C0A_11 
REMARK    5  A    between atoms: C0A_11  and  C0B_12 
REMARK       I    between atoms: C0B_12  and  N0C_13 
REMARK    6  A    between atoms: C0E_15  and  C0F_16 
REMARK    7  A    between atoms: C0F_16  and  C0G_17 
REMARK    8  A    between atoms: C0N_23  and  C0O_24 
REMARK    9  A    between atoms: C0O_24  and  N0P_25 
ROOT
ATOM      1  C02 MOL     1       2.488  10.506   1.965  1.00  0.00    -0.044 C 
ATOM      2  C03 MOL     1       3.675  10.413   1.225  1.00  0.00     0.129 C 
ATOM      3  C08 MOL     1       3.749  10.769  -0.181  1.00  0.00    -0.316 C 
ATOM      4  C09 MOL     1       2.640  11.351  -0.766  1.00  0.00     0.109 C 
ATOM      5  C0E MOL     1       1.436  11.408  -0.126  1.00  0.00    -0.064 C 
ATOM      6  C0N MOL     1       1.379  11.091   1.252  1.00  0.00    -0.120 C 
ENDROOT
BRANCH   5   7
ATOM      7  C0F MOL     1       0.231  11.956  -0.874  1.00  0.00     0.047 C 
BRANCH   7   8
ATOM      8  C0G MOL     1      -0.530  11.063  -1.817  1.00  0.00     0.171 C 
ATOM      9  C0M MOL     1      -0.597   9.669  -1.618  1.00  0.00    -0.195 C 
ATOM     10  C0K MOL     1      -1.303   8.836  -2.524  1.00  0.00    -0.062 C 
ATOM     11  C0J MOL     1      -1.805   9.324  -3.733  1.00  0.00    -0.135 C 
ATOM     12  C0I MOL     1      -1.692  10.734  -3.922  1.00  0.00    -0.071 C 
ATOM     13  C0H MOL     1      -1.114  11.528  -2.954  1.00  0.00    -0.152 C 
ENDBRANCH   7   8
ENDBRANCH   5   7
BRANCH   6  14
ATOM     14  C0O MOL     1       0.042  11.215   2.053  1.00  0.00     0.092 C 
BRANCH  14  15
ATOM     15  N0P MOL     1      -0.258  12.554   2.656  1.00  0.00    -0.153 N 
ATOM     16  H0Q MOL     1      -0.038  12.556   3.638  1.00  0.00     0.257 HD
ATOM     17  H0R MOL     1       0.402  13.219   2.264  1.00  0.00     0.244 HD
ATOM     18  H0S MOL     1      -1.215  12.861   2.562  1.00  0.00     0.246 HD
ENDBRANCH  14  15
ENDBRANCH   6  14
BRANCH   4  19
ATOM     19  C0A MOL     1       2.867  11.980  -2.160  1.00  0.00    -0.219 C 
BRANCH  19  20
ATOM     20  C0B MOL     1       3.127  10.959  -3.315  1.00  0.00     0.819 C 
ATOM     21  N0C MOL     1       4.319  10.933  -3.826  1.00  0.00    -0.993 N 
ATOM     22  H13 MOL     1       5.003  11.552  -3.396  1.00  0.00     0.395 HD
ATOM     23  H14 MOL     1       4.519  10.358  -4.624  1.00  0.00     0.440 HD
ATOM     24  O0D MOL     1       2.263  10.168  -3.650  1.00  0.00    -0.614 OA
ENDBRANCH  19  20
ENDBRANCH   4  19
BRANCH   1  25
ATOM     25  C01 MOL     1       2.377  10.084   3.447  1.00  0.00    -0.066 C 
ATOM     26  C00 MOL     1       1.898   8.562   3.606  1.00  0.00    -0.126 C 
ENDBRANCH   1  25
BRANCH   2  27
ATOM     27  C04 MOL     1       4.973   9.835   1.741  1.00  0.00    -0.266 C 
BRANCH  27  28
ATOM     28  C05 MOL     1       5.111   8.339   1.610  1.00  0.00     0.870 C 
ATOM     29  O06 MOL     1       5.279   7.757   0.556  1.00  0.00    -0.820 OA
ATOM     30  O07 MOL     1       5.129   7.650   2.686  1.00  0.00    -0.676 OA
ENDBRANCH  27  28
ENDBRANCH   2  27
TORSDOF 9
ENDMDL
