MODEL 1
REMARK VINA RESULT:      -6.2      0.000      0.000
REMARK  9 active torsions:
REMARK  status: ('A' for Active; 'I' for Inactive)
REMARK    1  A    between atoms: C01_2  and  C02_3 
REMARK    2  A    between atoms: C03_4  and  C04_5 
REMARK    3  A    between atoms: C04_5  and  C05_6 
REMARK    4  A    between atoms: C09_10  and  C0A_11 
REMARK    5  A    between atoms: C0A_11  and  C0B_12 
REMARK       I    between atoms: C0B_12  and  N0C_13 
REMARK    6  A    between atoms: C0E_15  and  C0F_16 
REMARK    7  A    between atoms: C0F_16  and  C0G_17 
REMARK    8  A    between atoms: C0N_23  and  C0O_24 
REMARK    9  A    between atoms: C0O_24  and  N0P_25 
ROOT
ATOM      1  C02 MOL     1       1.910   7.604  -6.394  1.00  0.00    -0.044 C 
ATOM      2  C03 MOL     1       1.383   6.457  -5.784  1.00  0.00     0.129 C 
ATOM      3  C08 MOL     1       0.421   6.522  -4.697  1.00  0.00    -0.316 C 
ATOM      4  C09 MOL     1      -0.092   7.759  -4.354  1.00  0.00     0.109 C 
ATOM      5  C0E MOL     1       0.425   8.917  -4.857  1.00  0.00    -0.064 C 
ATOM      6  C0N MOL     1       1.337   8.846  -5.937  1.00  0.00    -0.120 C 
ENDROOT
BRANCH   5   7
ATOM      7  C0F MOL     1      -0.111  10.246  -4.346  1.00  0.00     0.047 C 
BRANCH   7   8
ATOM      8  C0G MOL     1       0.480  10.860  -3.106  1.00  0.00     0.171 C 
ATOM      9  C0M MOL     1      -0.337  11.330  -2.057  1.00  0.00    -0.195 C 
ATOM     10  C0K MOL     1       0.231  11.924  -0.900  1.00  0.00    -0.062 C 
ATOM     11  C0J MOL     1       1.593  12.230  -0.823  1.00  0.00    -0.135 C 
ATOM     12  C0I MOL     1       2.388  11.773  -1.917  1.00  0.00    -0.071 C 
ATOM     13  C0H MOL     1       1.814  11.081  -2.962  1.00  0.00    -0.152 C 
ENDBRANCH   7   8
ENDBRANCH   5   7
BRANCH   6  14
ATOM     14  C0O MOL     1       1.899  10.143  -6.605  1.00  0.00     0.092 C 
BRANCH  14  15
ATOM     15  N0P MOL     1       1.142  10.675  -7.783  1.00  0.00    -0.153 N 
ATOM     16  H0Q MOL     1       1.683  11.374  -8.265  1.00  0.00     0.257 HD
ATOM     17  H0R MOL     1       1.068   9.923  -8.461  1.00  0.00     0.244 HD
ATOM     18  H0S MOL     1       0.246  11.087  -7.566  1.00  0.00     0.246 HD
ENDBRANCH  14  15
ENDBRANCH   6  14
BRANCH   4  19
ATOM     19  C0A MOL     1      -1.319   7.741  -3.413  1.00  0.00    -0.219 C 
BRANCH  19  20
ATOM     20  C0B MOL     1      -2.588   7.032  -3.991  1.00  0.00     0.819 C 
ATOM     21  N0C MOL     1      -2.856   5.843  -3.545  1.00  0.00    -0.993 N 
ATOM     22  H13 MOL     1      -2.241   5.490  -2.816  1.00  0.00     0.395 HD
ATOM     23  H14 MOL     1      -3.608   5.308  -3.940  1.00  0.00     0.440 HD
ATOM     24  O0D MOL     1      -3.330   7.616  -4.759  1.00  0.00    -0.614 OA
ENDBRANCH  19  20
ENDBRANCH   4  19
BRANCH   1  25
ATOM     25  C01 MOL     1       2.971   7.555  -7.515  1.00  0.00    -0.066 C 
ATOM     26  C00 MOL     1       2.308   7.420  -8.969  1.00  0.00    -0.126 C 
ENDBRANCH   1  25
BRANCH   2  27
ATOM     27  C04 MOL     1       1.817   5.040  -6.082  1.00  0.00    -0.266 C 
BRANCH  27  28
ATOM     28  C05 MOL     1       0.888   4.257  -6.975  1.00  0.00     0.870 C 
ATOM     29  O06 MOL     1       0.929   4.273  -8.190  1.00  0.00    -0.820 OA
ATOM     30  O07 MOL     1       0.056   3.465  -6.415  1.00  0.00    -0.676 OA
ENDBRANCH  27  28
ENDBRANCH   2  27
TORSDOF 9
ENDMDL
MODEL 2
REMARK VINA RESULT:      -5.9      3.369      6.828
REMARK  9 active torsions:
REMARK  status: ('A' for Active; 'I' for Inactive)
REMARK    1  A    between atoms: C01_2  and  C02_3 
REMARK    2  A    between atoms: C03_4  and  C04_5 
REMARK    3  A    between atoms: C04_5  and  C05_6 
REMARK    4  A    between atoms: C09_10  and  C0A_11 
REMARK    5  A    between atoms: C0A_11  and  C0B_12 
REMARK       I    between atoms: C0B_12  and  N0C_13 
REMARK    6  A    between atoms: C0E_15  and  C0F_16 
REMARK    7  A    between atoms: C0F_16  and  C0G_17 
REMARK    8  A    between atoms: C0N_23  and  C0O_24 
REMARK    9  A    between atoms: C0O_24  and  N0P_25 
ROOT
ATOM      1  C02 MOL     1       0.689  11.055  -2.426  1.00  0.00    -0.044 C 
ATOM      2  C03 MOL     1       2.017  11.193  -2.854  1.00  0.00     0.129 C 
ATOM      3  C08 MOL     1       2.574  10.406  -3.940  1.00  0.00    -0.316 C 
ATOM      4  C09 MOL     1       1.720   9.594  -4.661  1.00  0.00     0.109 C 
ATOM      5  C0E MOL     1       0.437   9.360  -4.258  1.00  0.00    -0.064 C 
ATOM      6  C0N MOL     1      -0.109  10.154  -3.221  1.00  0.00    -0.120 C 
ENDROOT
BRANCH   5   7
ATOM      7  C0F MOL     1      -0.409   8.364  -5.035  1.00  0.00     0.047 C 
BRANCH   7   8
ATOM      8  C0G MOL     1      -0.380   6.907  -4.658  1.00  0.00     0.171 C 
ATOM      9  C0M MOL     1       0.407   5.979  -5.371  1.00  0.00    -0.195 C 
ATOM     10  C0K MOL     1       0.412   4.604  -5.017  1.00  0.00    -0.062 C 
ATOM     11  C0J MOL     1      -0.483   4.082  -4.079  1.00  0.00    -0.135 C 
ATOM     12  C0I MOL     1      -1.291   5.043  -3.400  1.00  0.00    -0.071 C 
ATOM     13  C0H MOL     1      -1.170   6.387  -3.682  1.00  0.00    -0.152 C 
ENDBRANCH   7   8
ENDBRANCH   5   7
BRANCH   6  14
ATOM     14  C0O MOL     1      -1.597   9.983  -2.773  1.00  0.00     0.092 C 
BRANCH  14  15
ATOM     15  N0P MOL     1      -2.629  10.702  -3.585  1.00  0.00    -0.153 N 
ATOM     16  H0Q MOL     1      -2.963  10.115  -4.333  1.00  0.00     0.257 HD
ATOM     17  H0R MOL     1      -3.448  10.826  -2.998  1.00  0.00     0.244 HD
ATOM     18  H0S MOL     1      -2.320  11.569  -4.002  1.00  0.00     0.246 HD
ENDBRANCH  14  15
ENDBRANCH   6  14
BRANCH   4  19
ATOM     19  C0A MOL     1       2.290   9.018  -5.978  1.00  0.00    -0.219 C 
BRANCH  19  20
ATOM     20  C0B MOL     1       1.837   9.759  -7.278  1.00  0.00     0.819 C 
ATOM     21  N0C MOL     1       1.690   9.041  -8.349  1.00  0.00    -0.993 N 
ATOM     22  H13 MOL     1       1.837   8.040  -8.238  1.00  0.00     0.395 HD
ATOM     23  H14 MOL     1       1.482   9.474  -9.229  1.00  0.00     0.440 HD
ATOM     24  O0D MOL     1       1.554  10.943  -7.251  1.00  0.00    -0.614 OA
ENDBRANCH  19  20
ENDBRANCH   4  19
BRANCH   1  25
ATOM     25  C01 MOL     1       0.094  11.846  -1.240  1.00  0.00    -0.066 C 
ATOM     26  C00 MOL     1       0.388  11.136   0.168  1.00  0.00    -0.126 C 
ENDBRANCH   1  25
BRANCH   2  27
ATOM     27  C04 MOL     1       3.054  12.070  -2.189  1.00  0.00    -0.266 C 
BRANCH  27  28
ATOM     28  C05 MOL     1       4.105  11.336  -1.395  1.00  0.00     0.870 C 
ATOM     29  O06 MOL     1       3.871  10.651  -0.418  1.00  0.00    -0.820 OA
ATOM     30  O07 MOL     1       5.307  11.376  -1.825  1.00  0.00    -0.676 OA
ENDBRANCH  27  28
ENDBRANCH   2  27
TORSDOF 9
ENDMDL
MODEL 3
REMARK VINA RESULT:      -5.9      3.697      7.212
REMARK  9 active torsions:
REMARK  status: ('A' for Active; 'I' for Inactive)
REMARK    1  A    between atoms: C01_2  and  C02_3 
REMARK    2  A    between atoms: C03_4  and  C04_5 
REMARK    3  A    between atoms: C04_5  and  C05_6 
REMARK    4  A    between atoms: C09_10  and  C0A_11 
REMARK    5  A    between atoms: C0A_11  and  C0B_12 
REMARK       I    between atoms: C0B_12  and  N0C_13 
REMARK    6  A    between atoms: C0E_15  and  C0F_16 
REMARK    7  A    between atoms: C0F_16  and  C0G_17 
REMARK    8  A    between atoms: C0N_23  and  C0O_24 
REMARK    9  A    between atoms: C0O_24  and  N0P_25 
ROOT
ATOM      1  C02 MOL     1       2.267  10.413  -0.741  1.00  0.00    -0.044 C 
ATOM      2  C03 MOL     1       1.081  11.026  -0.313  1.00  0.00     0.129 C 
ATOM      3  C08 MOL     1      -0.170  10.898  -1.040  1.00  0.00    -0.316 C 
ATOM      4  C09 MOL     1      -0.216  10.027  -2.112  1.00  0.00     0.109 C 
ATOM      5  C0E MOL     1       0.913   9.454  -2.622  1.00  0.00    -0.064 C 
ATOM      6  C0N MOL     1       2.121   9.555  -1.892  1.00  0.00    -0.120 C 
ENDROOT
BRANCH   5   7
ATOM      7  C0F MOL     1       0.802   8.599  -3.875  1.00  0.00     0.047 C 
BRANCH   7   8
ATOM      8  C0G MOL     1       0.470   7.137  -3.753  1.00  0.00     0.171 C 
ATOM      9  C0M MOL     1       1.407   6.139  -4.092  1.00  0.00    -0.195 C 
ATOM     10  C0K MOL     1       1.077   4.763  -3.989  1.00  0.00    -0.062 C 
ATOM     11  C0J MOL     1      -0.228   4.337  -3.726  1.00  0.00    -0.135 C 
ATOM     12  C0I MOL     1      -1.163   5.373  -3.422  1.00  0.00    -0.071 C 
ATOM     13  C0H MOL     1      -0.766   6.693  -3.403  1.00  0.00    -0.152 C 
ENDBRANCH   7   8
ENDBRANCH   5   7
BRANCH   6  14
ATOM     14  C0O MOL     1       3.425   8.851  -2.389  1.00  0.00     0.092 C 
BRANCH  14  15
ATOM     15  N0P MOL     1       3.738   7.515  -1.788  1.00  0.00    -0.153 N 
ATOM     16  H0Q MOL     1       3.565   6.779  -2.453  1.00  0.00     0.257 HD
ATOM     17  H0R MOL     1       4.742   7.474  -1.643  1.00  0.00     0.244 HD
ATOM     18  H0S MOL     1       3.219   7.290  -0.951  1.00  0.00     0.246 HD
ENDBRANCH  14  15
ENDBRANCH   6  14
BRANCH   4  19
ATOM     19  C0A MOL     1      -1.627   9.702  -2.654  1.00  0.00    -0.219 C 
BRANCH  19  20
ATOM     20  C0B MOL     1      -2.090  10.577  -3.865  1.00  0.00     0.819 C 
ATOM     21  N0C MOL     1      -3.185  10.225  -4.466  1.00  0.00    -0.993 N 
ATOM     22  H13 MOL     1      -3.679   9.431  -4.064  1.00  0.00     0.395 HD
ATOM     23  H14 MOL     1      -3.485  10.698  -5.298  1.00  0.00     0.440 HD
ATOM     24  O0D MOL     1      -1.487  11.591  -4.165  1.00  0.00    -0.614 OA
ENDBRANCH  19  20
ENDBRANCH   4  19
BRANCH   1  25
ATOM     25  C01 MOL     1       3.618  10.578  -0.011  1.00  0.00    -0.066 C 
ATOM     26  C00 MOL     1       3.711   9.662   1.303  1.00  0.00    -0.126 C 
ENDBRANCH   1  25
BRANCH   2  27
ATOM     27  C04 MOL     1       0.970  11.970   0.862  1.00  0.00    -0.266 C 
BRANCH  27  28
ATOM     28  C05 MOL     1       0.960  13.437   0.511  1.00  0.00     0.870 C 
ATOM     29  O06 MOL     1       1.957  14.094   0.284  1.00  0.00    -0.820 OA
ATOM     30  O07 MOL     1      -0.176  14.004   0.367  1.00  0.00    -0.676 OA
ENDBRANCH  27  28
ENDBRANCH   2  27
TORSDOF 9
ENDMDL
MODEL 4
REMARK VINA RESULT:      -5.7      3.467      6.838
REMARK  9 active torsions:
REMARK  status: ('A' for Active; 'I' for Inactive)
REMARK    1  A    between atoms: C01_2  and  C02_3 
REMARK    2  A    between atoms: C03_4  and  C04_5 
REMARK    3  A    between atoms: C04_5  and  C05_6 
REMARK    4  A    between atoms: C09_10  and  C0A_11 
REMARK    5  A    between atoms: C0A_11  and  C0B_12 
REMARK       I    between atoms: C0B_12  and  N0C_13 
REMARK    6  A    between atoms: C0E_15  and  C0F_16 
REMARK    7  A    between atoms: C0F_16  and  C0G_17 
REMARK    8  A    between atoms: C0N_23  and  C0O_24 
REMARK    9  A    between atoms: C0O_24  and  N0P_25 
ROOT
ATOM      1  C02 MOL     1       2.110  10.296  -0.902  1.00  0.00    -0.044 C 
ATOM      2  C03 MOL     1       0.971  11.101  -0.772  1.00  0.00     0.129 C 
ATOM      3  C08 MOL     1       0.050  11.336  -1.871  1.00  0.00    -0.316 C 
ATOM      4  C09 MOL     1       0.237  10.625  -3.042  1.00  0.00     0.109 C 
ATOM      5  C0E MOL     1       1.360   9.880  -3.259  1.00  0.00    -0.064 C 
ATOM      6  C0N MOL     1       2.234   9.629  -2.175  1.00  0.00    -0.120 C 
ENDROOT
BRANCH   5   7
ATOM      7  C0F MOL     1       1.553   9.219  -4.615  1.00  0.00     0.047 C 
BRANCH   7   8
ATOM      8  C0G MOL     1       2.435   9.873  -5.644  1.00  0.00     0.171 C 
ATOM      9  C0M MOL     1       2.861  11.210  -5.506  1.00  0.00    -0.195 C 
ATOM     10  C0K MOL     1       3.678  11.821  -6.492  1.00  0.00    -0.062 C 
ATOM     11  C0J MOL     1       3.947  11.198  -7.713  1.00  0.00    -0.135 C 
ATOM     12  C0I MOL     1       3.473   9.858  -7.837  1.00  0.00    -0.071 C 
ATOM     13  C0H MOL     1       2.795   9.254  -6.800  1.00  0.00    -0.152 C 
ENDBRANCH   7   8
ENDBRANCH   5   7
BRANCH   6  14
ATOM     14  C0O MOL     1       3.492   8.716  -2.348  1.00  0.00     0.092 C 
BRANCH  14  15
ATOM     15  N0P MOL     1       3.286   7.245  -2.155  1.00  0.00    -0.153 N 
ATOM     16  H0Q MOL     1       3.785   6.922  -1.342  1.00  0.00     0.257 HD
ATOM     17  H0R MOL     1       2.311   7.104  -1.907  1.00  0.00     0.244 HD
ATOM     18  H0S MOL     1       3.574   6.666  -2.932  1.00  0.00     0.246 HD
ENDBRANCH  14  15
ENDBRANCH   6  14
BRANCH   4  19
ATOM     19  C0A MOL     1      -0.927  10.682  -4.057  1.00  0.00    -0.219 C 
BRANCH  19  20
ATOM     20  C0B MOL     1      -2.018   9.576  -3.879  1.00  0.00     0.819 C 
ATOM     21  N0C MOL     1      -2.757   9.302  -4.910  1.00  0.00    -0.993 N 
ATOM     22  H13 MOL     1      -2.530   9.800  -5.767  1.00  0.00     0.395 HD
ATOM     23  H14 MOL     1      -3.526   8.662  -4.830  1.00  0.00     0.440 HD
ATOM     24  O0D MOL     1      -2.101   8.948  -2.839  1.00  0.00    -0.614 OA
ENDBRANCH  19  20
ENDBRANCH   4  19
BRANCH   1  25
ATOM     25  C01 MOL     1       3.127  10.075   0.240  1.00  0.00    -0.066 C 
ATOM     26  C00 MOL     1       4.211  11.255   0.318  1.00  0.00    -0.126 C 
ENDBRANCH   1  25
BRANCH   2  27
ATOM     27  C04 MOL     1       0.615  11.907   0.456  1.00  0.00    -0.266 C 
BRANCH  27  28
ATOM     28  C05 MOL     1       0.792  13.399   0.323  1.00  0.00     0.870 C 
ATOM     29  O06 MOL     1       1.868  13.952   0.199  1.00  0.00    -0.820 OA
ATOM     30  O07 MOL     1      -0.262  14.117   0.257  1.00  0.00    -0.676 OA
ENDBRANCH  27  28
ENDBRANCH   2  27
TORSDOF 9
ENDMDL
MODEL 5
REMARK VINA RESULT:      -5.6      3.556      4.841
REMARK  9 active torsions:
REMARK  status: ('A' for Active; 'I' for Inactive)
REMARK    1  A    between atoms: C01_2  and  C02_3 
REMARK    2  A    between atoms: C03_4  and  C04_5 
REMARK    3  A    between atoms: C04_5  and  C05_6 
REMARK    4  A    between atoms: C09_10  and  C0A_11 
REMARK    5  A    between atoms: C0A_11  and  C0B_12 
REMARK       I    between atoms: C0B_12  and  N0C_13 
REMARK    6  A    between atoms: C0E_15  and  C0F_16 
REMARK    7  A    between atoms: C0F_16  and  C0G_17 
REMARK    8  A    between atoms: C0N_23  and  C0O_24 
REMARK    9  A    between atoms: C0O_24  and  N0P_25 
ROOT
ATOM      1  C02 MOL     1       3.167  10.714  -3.584  1.00  0.00    -0.044 C 
ATOM      2  C03 MOL     1       2.291  10.985  -4.644  1.00  0.00     0.129 C 
ATOM      3  C08 MOL     1       0.847  10.923  -4.499  1.00  0.00    -0.316 C 
ATOM      4  C09 MOL     1       0.326  10.726  -3.234  1.00  0.00     0.109 C 
ATOM      5  C0E MOL     1       1.118  10.388  -2.175  1.00  0.00    -0.064 C 
ATOM      6  C0N MOL     1       2.523  10.482  -2.314  1.00  0.00    -0.120 C 
ENDROOT
BRANCH   5   7
ATOM      7  C0F MOL     1       0.464  10.070  -0.839  1.00  0.00     0.047 C 
BRANCH   7   8
ATOM      8  C0G MOL     1       0.365  11.139   0.215  1.00  0.00     0.171 C 
ATOM      9  C0M MOL     1       0.091  10.822   1.562  1.00  0.00    -0.195 C 
ATOM     10  C0K MOL     1      -0.017  11.841   2.544  1.00  0.00    -0.062 C 
ATOM     11  C0J MOL     1      -0.038  13.195   2.200  1.00  0.00    -0.135 C 
ATOM     12  C0I MOL     1       0.206  13.483   0.823  1.00  0.00    -0.071 C 
ATOM     13  C0H MOL     1       0.439  12.465  -0.077  1.00  0.00    -0.152 C 
ENDBRANCH   7   8
ENDBRANCH   5   7
BRANCH   6  14
ATOM     14  C0O MOL     1       3.475  10.183  -1.110  1.00  0.00     0.092 C 
BRANCH  14  15
ATOM     15  N0P MOL     1       3.818   8.745  -0.867  1.00  0.00    -0.153 N 
ATOM     16  H0Q MOL     1       4.725   8.529  -1.246  1.00  0.00     0.257 HD
ATOM     17  H0R MOL     1       3.945   8.628   0.134  1.00  0.00     0.244 HD
ATOM     18  H0S MOL     1       3.165   8.077  -1.253  1.00  0.00     0.246 HD
ENDBRANCH  14  15
ENDBRANCH   6  14
BRANCH   4  19
ATOM     19  C0A MOL     1      -1.194  10.968  -3.086  1.00  0.00    -0.219 C 
BRANCH  19  20
ATOM     20  C0B MOL     1      -2.103   9.787  -3.557  1.00  0.00     0.819 C 
ATOM     21  N0C MOL     1      -2.883  10.007  -4.571  1.00  0.00    -0.993 N 
ATOM     22  H13 MOL     1      -2.801  10.923  -5.006  1.00  0.00     0.395 HD
ATOM     23  H14 MOL     1      -3.547   9.314  -4.863  1.00  0.00     0.440 HD
ATOM     24  O0D MOL     1      -2.009   8.688  -3.042  1.00  0.00    -0.614 OA
ENDBRANCH  19  20
ENDBRANCH   4  19
BRANCH   1  25
ATOM     25  C01 MOL     1       4.705  10.724  -3.732  1.00  0.00    -0.066 C 
ATOM     26  C00 MOL     1       5.311  12.205  -3.629  1.00  0.00    -0.126 C 
ENDBRANCH   1  25
BRANCH   2  27
ATOM     27  C04 MOL     1       2.714  11.256  -6.070  1.00  0.00    -0.266 C 
BRANCH  27  28
ATOM     28  C05 MOL     1       1.754  10.776  -7.129  1.00  0.00     0.870 C 
ATOM     29  O06 MOL     1       1.028  11.505  -7.776  1.00  0.00    -0.820 OA
ATOM     30  O07 MOL     1       1.763   9.531  -7.416  1.00  0.00    -0.676 OA
ENDBRANCH  27  28
ENDBRANCH   2  27
TORSDOF 9
ENDMDL
MODEL 6
REMARK VINA RESULT:      -5.6     13.341     16.798
REMARK  9 active torsions:
REMARK  status: ('A' for Active; 'I' for Inactive)
REMARK    1  A    between atoms: C01_2  and  C02_3 
REMARK    2  A    between atoms: C03_4  and  C04_5 
REMARK    3  A    between atoms: C04_5  and  C05_6 
REMARK    4  A    between atoms: C09_10  and  C0A_11 
REMARK    5  A    between atoms: C0A_11  and  C0B_12 
REMARK       I    between atoms: C0B_12  and  N0C_13 
REMARK    6  A    between atoms: C0E_15  and  C0F_16 
REMARK    7  A    between atoms: C0F_16  and  C0G_17 
REMARK    8  A    between atoms: C0N_23  and  C0O_24 
REMARK    9  A    between atoms: C0O_24  and  N0P_25 
ROOT
ATOM      1  C02 MOL     1      -4.282   7.414 -20.433  1.00  0.00    -0.044 C 
ATOM      2  C03 MOL     1      -3.827   6.267 -19.768  1.00  0.00     0.129 C 
ATOM      3  C08 MOL     1      -2.420   6.025 -19.501  1.00  0.00    -0.316 C 
ATOM      4  C09 MOL     1      -1.518   7.031 -19.792  1.00  0.00     0.109 C 
ATOM      5  C0E MOL     1      -1.882   8.140 -20.499  1.00  0.00    -0.064 C 
ATOM      6  C0N MOL     1      -3.257   8.385 -20.727  1.00  0.00    -0.120 C 
ENDROOT
BRANCH   5   7
ATOM      7  C0F MOL     1      -0.812   9.151 -20.884  1.00  0.00     0.047 C 
BRANCH   7   8
ATOM      8  C0G MOL     1      -0.261   9.155 -22.284  1.00  0.00     0.171 C 
ATOM      9  C0M MOL     1       0.079  10.358 -22.937  1.00  0.00    -0.195 C 
ATOM     10  C0K MOL     1       0.582  10.351 -24.265  1.00  0.00    -0.062 C 
ATOM     11  C0J MOL     1       0.594   9.189 -25.040  1.00  0.00    -0.135 C 
ATOM     12  C0I MOL     1       0.211   7.993 -24.362  1.00  0.00    -0.071 C 
ATOM     13  C0H MOL     1      -0.145   8.024 -23.030  1.00  0.00    -0.152 C 
ENDBRANCH   7   8
ENDBRANCH   5   7
BRANCH   6  14
ATOM     14  C0O MOL     1      -3.734   9.680 -21.463  1.00  0.00     0.092 C 
BRANCH  14  15
ATOM     15  N0P MOL     1      -3.756   9.632 -22.960  1.00  0.00    -0.153 N 
ATOM     16  H0Q MOL     1      -4.389  10.324 -23.326  1.00  0.00     0.257 HD
ATOM     17  H0R MOL     1      -2.847   9.943 -23.288  1.00  0.00     0.244 HD
ATOM     18  H0S MOL     1      -4.025   8.742 -23.356  1.00  0.00     0.246 HD
ENDBRANCH  14  15
ENDBRANCH   6  14
BRANCH   4  19
ATOM     19  C0A MOL     1      -0.095   6.847 -19.216  1.00  0.00    -0.219 C 
BRANCH  19  20
ATOM     20  C0B MOL     1       0.099   7.355 -17.750  1.00  0.00     0.819 C 
ATOM     21  N0C MOL     1      -0.054   6.487 -16.798  1.00  0.00    -0.993 N 
ATOM     22  H13 MOL     1      -0.242   5.531 -17.090  1.00  0.00     0.395 HD
ATOM     23  H14 MOL     1      -0.024   6.774 -15.837  1.00  0.00     0.440 HD
ATOM     24  O0D MOL     1       0.464   8.496 -17.532  1.00  0.00    -0.614 OA
ENDBRANCH  19  20
ENDBRANCH   4  19
BRANCH   1  25
ATOM     25  C01 MOL     1      -5.768   7.664 -20.771  1.00  0.00    -0.066 C 
ATOM     26  C00 MOL     1      -6.187   7.005 -22.173  1.00  0.00    -0.126 C 
ENDBRANCH   1  25
BRANCH   2  27
ATOM     27  C04 MOL     1      -4.698   5.103 -19.354  1.00  0.00    -0.266 C 
BRANCH  27  28
ATOM     28  C05 MOL     1      -5.171   5.129 -17.922  1.00  0.00     0.870 C 
ATOM     29  O06 MOL     1      -5.924   5.967 -17.465  1.00  0.00    -0.820 OA
ATOM     30  O07 MOL     1      -4.817   4.163 -17.164  1.00  0.00    -0.676 OA
ENDBRANCH  27  28
ENDBRANCH   2  27
TORSDOF 9
ENDMDL
MODEL 7
REMARK VINA RESULT:      -5.6     19.801     22.815
REMARK  9 active torsions:
REMARK  status: ('A' for Active; 'I' for Inactive)
REMARK    1  A    between atoms: C01_2  and  C02_3 
REMARK    2  A    between atoms: C03_4  and  C04_5 
REMARK    3  A    between atoms: C04_5  and  C05_6 
REMARK    4  A    between atoms: C09_10  and  C0A_11 
REMARK    5  A    between atoms: C0A_11  and  C0B_12 
REMARK       I    between atoms: C0B_12  and  N0C_13 
REMARK    6  A    between atoms: C0E_15  and  C0F_16 
REMARK    7  A    between atoms: C0F_16  and  C0G_17 
REMARK    8  A    between atoms: C0N_23  and  C0O_24 
REMARK    9  A    between atoms: C0O_24  and  N0P_25 
ROOT
ATOM      1  C02 MOL     1     -12.399   1.714  11.784  1.00  0.00    -0.044 C 
ATOM      2  C03 MOL     1     -11.362   2.260  11.015  1.00  0.00     0.129 C 
ATOM      3  C08 MOL     1      -9.993   1.779  11.094  1.00  0.00    -0.316 C 
ATOM      4  C09 MOL     1      -9.741   0.653  11.854  1.00  0.00     0.109 C 
ATOM      5  C0E MOL     1     -10.685   0.115  12.680  1.00  0.00    -0.064 C 
ATOM      6  C0N MOL     1     -12.023   0.566  12.573  1.00  0.00    -0.120 C 
ENDROOT
BRANCH   5   7
ATOM      7  C0F MOL     1     -10.302  -1.053  13.574  1.00  0.00     0.047 C 
BRANCH   7   8
ATOM      8  C0G MOL     1     -10.386  -0.906  15.069  1.00  0.00     0.171 C 
ATOM      9  C0M MOL     1     -10.310   0.358  15.690  1.00  0.00    -0.195 C 
ATOM     10  C0K MOL     1     -10.373   0.483  17.102  1.00  0.00    -0.062 C 
ATOM     11  C0J MOL     1     -10.332  -0.634  17.942  1.00  0.00    -0.135 C 
ATOM     12  C0I MOL     1     -10.374  -1.900  17.283  1.00  0.00    -0.071 C 
ATOM     13  C0H MOL     1     -10.446  -1.974  15.908  1.00  0.00    -0.152 C 
ENDBRANCH   7   8
ENDBRANCH   5   7
BRANCH   6  14
ATOM     14  C0O MOL     1     -13.160  -0.070  13.437  1.00  0.00     0.092 C 
BRANCH  14  15
ATOM     15  N0P MOL     1     -13.841  -1.277  12.867  1.00  0.00    -0.153 N 
ATOM     16  H0Q MOL     1     -14.122  -1.904  13.603  1.00  0.00     0.257 HD
ATOM     17  H0R MOL     1     -14.722  -0.969  12.468  1.00  0.00     0.244 HD
ATOM     18  H0S MOL     1     -13.288  -1.812  12.213  1.00  0.00     0.246 HD
ENDBRANCH  14  15
ENDBRANCH   6  14
BRANCH   4  19
ATOM     19  C0A MOL     1      -8.346   0.013  11.665  1.00  0.00    -0.219 C 
BRANCH  19  20
ATOM     20  C0B MOL     1      -7.376   0.801  10.727  1.00  0.00     0.819 C 
ATOM     21  N0C MOL     1      -7.400   0.503   9.464  1.00  0.00    -0.993 N 
ATOM     22  H13 MOL     1      -8.088  -0.191   9.182  1.00  0.00     0.395 HD
ATOM     23  H14 MOL     1      -6.742   0.917   8.829  1.00  0.00     0.440 HD
ATOM     24  O0D MOL     1      -6.696   1.713  11.162  1.00  0.00    -0.614 OA
ENDBRANCH  19  20
ENDBRANCH   4  19
BRANCH   1  25
ATOM     25  C01 MOL     1     -13.849   2.245  11.751  1.00  0.00    -0.066 C 
ATOM     26  C00 MOL     1     -14.681   1.650  10.515  1.00  0.00    -0.126 C 
ENDBRANCH   1  25
BRANCH   2  27
ATOM     27  C04 MOL     1     -11.496   3.464  10.110  1.00  0.00    -0.266 C 
BRANCH  27  28
ATOM     28  C05 MOL     1     -10.611   4.634  10.459  1.00  0.00     0.870 C 
ATOM     29  O06 MOL     1     -10.584   5.171  11.549  1.00  0.00    -0.820 OA
ATOM     30  O07 MOL     1      -9.782   5.034   9.573  1.00  0.00    -0.676 OA
ENDBRANCH  27  28
ENDBRANCH   2  27
TORSDOF 9
ENDMDL
MODEL 8
REMARK VINA RESULT:      -5.4     13.206     16.943
REMARK  9 active torsions:
REMARK  status: ('A' for Active; 'I' for Inactive)
REMARK    1  A    between atoms: C01_2  and  C02_3 
REMARK    2  A    between atoms: C03_4  and  C04_5 
REMARK    3  A    between atoms: C04_5  and  C05_6 
REMARK    4  A    between atoms: C09_10  and  C0A_11 
REMARK    5  A    between atoms: C0A_11  and  C0B_12 
REMARK       I    between atoms: C0B_12  and  N0C_13 
REMARK    6  A    between atoms: C0E_15  and  C0F_16 
REMARK    7  A    between atoms: C0F_16  and  C0G_17 
REMARK    8  A    between atoms: C0N_23  and  C0O_24 
REMARK    9  A    between atoms: C0O_24  and  N0P_25 
ROOT
ATOM      1  C02 MOL     1      -2.684   7.925 -21.800  1.00  0.00    -0.044 C 
ATOM      2  C03 MOL     1      -3.356   7.228 -20.786  1.00  0.00     0.129 C 
ATOM      3  C08 MOL     1      -2.665   6.382 -19.829  1.00  0.00    -0.316 C 
ATOM      4  C09 MOL     1      -1.283   6.379 -19.839  1.00  0.00     0.109 C 
ATOM      5  C0E MOL     1      -0.570   6.977 -20.838  1.00  0.00    -0.064 C 
ATOM      6  C0N MOL     1      -1.246   7.826 -21.746  1.00  0.00    -0.120 C 
ENDROOT
BRANCH   5   7
ATOM      7  C0F MOL     1       0.944   6.834 -20.848  1.00  0.00     0.047 C 
BRANCH   7   8
ATOM      8  C0G MOL     1       1.572   5.601 -21.438  1.00  0.00     0.171 C 
ATOM      9  C0M MOL     1       1.166   5.095 -22.690  1.00  0.00    -0.195 C 
ATOM     10  C0K MOL     1       1.754   3.921 -23.228  1.00  0.00    -0.062 C 
ATOM     11  C0J MOL     1       2.620   3.121 -22.477  1.00  0.00    -0.135 C 
ATOM     12  C0I MOL     1       2.984   3.642 -21.199  1.00  0.00    -0.071 C 
ATOM     13  C0H MOL     1       2.491   4.856 -20.768  1.00  0.00    -0.152 C 
ENDBRANCH   7   8
ENDBRANCH   5   7
BRANCH   6  14
ATOM     14  C0O MOL     1      -0.467   8.599 -22.860  1.00  0.00     0.092 C 
BRANCH  14  15
ATOM     15  N0P MOL     1       0.091   9.937 -22.483  1.00  0.00    -0.153 N 
ATOM     16  H0Q MOL     1       1.093   9.890 -22.392  1.00  0.00     0.257 HD
ATOM     17  H0R MOL     1      -0.046  10.559 -23.275  1.00  0.00     0.244 HD
ATOM     18  H0S MOL     1      -0.269  10.326 -21.623  1.00  0.00     0.246 HD
ENDBRANCH  14  15
ENDBRANCH   6  14
BRANCH   4  19
ATOM     19  C0A MOL     1      -0.603   5.709 -18.624  1.00  0.00    -0.219 C 
BRANCH  19  20
ATOM     20  C0B MOL     1      -0.187   6.685 -17.475  1.00  0.00     0.819 C 
ATOM     21  N0C MOL     1       0.069   6.160 -16.316  1.00  0.00    -0.993 N 
ATOM     22  H13 MOL     1       0.023   5.145 -16.265  1.00  0.00     0.395 HD
ATOM     23  H14 MOL     1       0.259   6.744 -15.522  1.00  0.00     0.440 HD
ATOM     24  O0D MOL     1      -0.029   7.872 -17.695  1.00  0.00    -0.614 OA
ENDBRANCH  19  20
ENDBRANCH   4  19
BRANCH   1  25
ATOM     25  C01 MOL     1      -3.406   8.789 -22.857  1.00  0.00    -0.066 C 
ATOM     26  C00 MOL     1      -3.553  10.317 -22.390  1.00  0.00    -0.126 C 
ENDBRANCH   1  25
BRANCH   2  27
ATOM     27  C04 MOL     1      -4.858   7.170 -20.625  1.00  0.00    -0.266 C 
BRANCH  27  28
ATOM     28  C05 MOL     1      -5.428   8.071 -19.559  1.00  0.00     0.870 C 
ATOM     29  O06 MOL     1      -6.241   7.719 -18.727  1.00  0.00    -0.820 OA
ATOM     30  O07 MOL     1      -4.965   9.260 -19.480  1.00  0.00    -0.676 OA
ENDBRANCH  27  28
ENDBRANCH   2  27
TORSDOF 9
ENDMDL
MODEL 9
REMARK VINA RESULT:      -5.4     12.503     15.478
REMARK  9 active torsions:
REMARK  status: ('A' for Active; 'I' for Inactive)
REMARK    1  A    between atoms: C01_2  and  C02_3 
REMARK    2  A    between atoms: C03_4  and  C04_5 
REMARK    3  A    between atoms: C04_5  and  C05_6 
REMARK    4  A    between atoms: C09_10  and  C0A_11 
REMARK    5  A    between atoms: C0A_11  and  C0B_12 
REMARK       I    between atoms: C0B_12  and  N0C_13 
REMARK    6  A    between atoms: C0E_15  and  C0F_16 
REMARK    7  A    between atoms: C0F_16  and  C0G_17 
REMARK    8  A    between atoms: C0N_23  and  C0O_24 
REMARK    9  A    between atoms: C0O_24  and  N0P_25 
ROOT
ATOM      1  C02 MOL     1      -2.551   5.696 -19.259  1.00  0.00    -0.044 C 
ATOM      2  C03 MOL     1      -3.248   6.383 -20.262  1.00  0.00     0.129 C 
ATOM      3  C08 MOL     1      -2.637   7.431 -21.061  1.00  0.00    -0.316 C 
ATOM      4  C09 MOL     1      -1.280   7.655 -20.915  1.00  0.00     0.109 C 
ATOM      5  C0E MOL     1      -0.559   7.073 -19.914  1.00  0.00    -0.064 C 
ATOM      6  C0N MOL     1      -1.151   6.031 -19.161  1.00  0.00    -0.120 C 
ENDROOT
BRANCH   5   7
ATOM      7  C0F MOL     1       0.903   7.456 -19.741  1.00  0.00     0.047 C 
BRANCH   7   8
ATOM      8  C0G MOL     1       1.316   8.317 -18.579  1.00  0.00     0.171 C 
ATOM      9  C0M MOL     1       2.488   8.047 -17.843  1.00  0.00    -0.195 C 
ATOM     10  C0K MOL     1       2.858   8.855 -16.737  1.00  0.00    -0.062 C 
ATOM     11  C0J MOL     1       2.001   9.831 -16.220  1.00  0.00    -0.135 C 
ATOM     12  C0I MOL     1       0.806  10.057 -16.966  1.00  0.00    -0.071 C 
ATOM     13  C0H MOL     1       0.547   9.338 -18.114  1.00  0.00    -0.152 C 
ENDBRANCH   7   8
ENDBRANCH   5   7
BRANCH   6  14
ATOM     14  C0O MOL     1      -0.344   5.275 -18.055  1.00  0.00     0.092 C 
BRANCH  14  15
ATOM     15  N0P MOL     1      -0.272   5.931 -16.710  1.00  0.00    -0.153 N 
ATOM     16  H0Q MOL     1      -0.180   6.929 -16.808  1.00  0.00     0.257 HD
ATOM     17  H0R MOL     1      -1.180   5.819 -16.268  1.00  0.00     0.244 HD
ATOM     18  H0S MOL     1       0.485   5.617 -16.120  1.00  0.00     0.246 HD
ENDBRANCH  14  15
ENDBRANCH   6  14
BRANCH   4  19
ATOM     19  C0A MOL     1      -0.628   8.556 -21.989  1.00  0.00    -0.219 C 
BRANCH  19  20
ATOM     20  C0B MOL     1      -0.795  10.093 -21.755  1.00  0.00     0.819 C 
ATOM     21  N0C MOL     1       0.267  10.761 -21.424  1.00  0.00    -0.993 N 
ATOM     22  H13 MOL     1       1.135  10.231 -21.391  1.00  0.00     0.395 HD
ATOM     23  H14 MOL     1       0.204  11.732 -21.181  1.00  0.00     0.440 HD
ATOM     24  O0D MOL     1      -1.863  10.641 -21.964  1.00  0.00    -0.614 OA
ENDBRANCH  19  20
ENDBRANCH   4  19
BRANCH   1  25
ATOM     25  C01 MOL     1      -3.198   4.616 -18.364  1.00  0.00    -0.066 C 
ATOM     26  C00 MOL     1      -4.703   4.991 -17.958  1.00  0.00    -0.126 C 
ENDBRANCH   1  25
BRANCH   2  27
ATOM     27  C04 MOL     1      -4.720   6.216 -20.563  1.00  0.00    -0.266 C 
BRANCH  27  28
ATOM     28  C05 MOL     1      -5.544   7.476 -20.466  1.00  0.00     0.870 C 
ATOM     29  O06 MOL     1      -5.633   8.161 -19.466  1.00  0.00    -0.820 OA
ATOM     30  O07 MOL     1      -6.122   7.888 -21.528  1.00  0.00    -0.676 OA
ENDBRANCH  27  28
ENDBRANCH   2  27
TORSDOF 9
ENDMDL
MODEL 10
REMARK VINA RESULT:      -5.3     18.354     21.482
REMARK  9 active torsions:
REMARK  status: ('A' for Active; 'I' for Inactive)
REMARK    1  A    between atoms: C01_2  and  C02_3 
REMARK    2  A    between atoms: C03_4  and  C04_5 
REMARK    3  A    between atoms: C04_5  and  C05_6 
REMARK    4  A    between atoms: C09_10  and  C0A_11 
REMARK    5  A    between atoms: C0A_11  and  C0B_12 
REMARK       I    between atoms: C0B_12  and  N0C_13 
REMARK    6  A    between atoms: C0E_15  and  C0F_16 
REMARK    7  A    between atoms: C0F_16  and  C0G_17 
REMARK    8  A    between atoms: C0N_23  and  C0O_24 
REMARK    9  A    between atoms: C0O_24  and  N0P_25 
ROOT
ATOM      1  C02 MOL     1     -10.715   0.284  12.389  1.00  0.00    -0.044 C 
ATOM      2  C03 MOL     1      -9.607   0.616  11.598  1.00  0.00     0.129 C 
ATOM      3  C08 MOL     1      -9.599   1.763  10.706  1.00  0.00    -0.316 C 
ATOM      4  C09 MOL     1     -10.674   2.631  10.751  1.00  0.00     0.109 C 
ATOM      5  C0E MOL     1     -11.811   2.333  11.444  1.00  0.00    -0.064 C 
ATOM      6  C0N MOL     1     -11.800   1.233  12.335  1.00  0.00    -0.120 C 
ENDROOT
BRANCH   5   7
ATOM      7  C0F MOL     1     -12.998   3.279  11.352  1.00  0.00     0.047 C 
BRANCH   7   8
ATOM      8  C0G MOL     1     -14.008   3.104  10.252  1.00  0.00     0.171 C 
ATOM      9  C0M MOL     1     -14.700   4.205   9.705  1.00  0.00    -0.195 C 
ATOM     10  C0K MOL     1     -15.663   4.025   8.679  1.00  0.00    -0.062 C 
ATOM     11  C0J MOL     1     -16.098   2.754   8.293  1.00  0.00    -0.135 C 
ATOM     12  C0I MOL     1     -15.404   1.659   8.891  1.00  0.00    -0.071 C 
ATOM     13  C0H MOL     1     -14.380   1.882   9.787  1.00  0.00    -0.152 C 
ENDBRANCH   7   8
ENDBRANCH   5   7
BRANCH   6  14
ATOM     14  C0O MOL     1     -13.048   0.894  13.213  1.00  0.00     0.092 C 
BRANCH  14  15
ATOM     15  N0P MOL     1     -14.039  -0.066  12.629  1.00  0.00    -0.153 N 
ATOM     16  H0Q MOL     1     -14.395   0.282  11.754  1.00  0.00     0.257 HD
ATOM     17  H0R MOL     1     -13.530  -0.904  12.362  1.00  0.00     0.244 HD
ATOM     18  H0S MOL     1     -14.835  -0.270  13.216  1.00  0.00     0.246 HD
ENDBRANCH  14  15
ENDBRANCH   6  14
BRANCH   4  19
ATOM     19  C0A MOL     1     -10.482   3.978  10.016  1.00  0.00    -0.219 C 
BRANCH  19  20
ATOM     20  C0B MOL     1      -9.002   4.471   9.910  1.00  0.00     0.819 C 
ATOM     21  N0C MOL     1      -8.436   4.884  11.003  1.00  0.00    -0.993 N 
ATOM     22  H13 MOL     1      -8.992   4.806  11.851  1.00  0.00     0.395 HD
ATOM     23  H14 MOL     1      -7.518   5.289  10.980  1.00  0.00     0.440 HD
ATOM     24  O0D MOL     1      -8.391   4.384   8.860  1.00  0.00    -0.614 OA
ENDBRANCH  19  20
ENDBRANCH   4  19
BRANCH   1  25
ATOM     25  C01 MOL     1     -10.761  -0.959  13.304  1.00  0.00    -0.066 C 
ATOM     26  C00 MOL     1     -10.216  -0.644  14.780  1.00  0.00    -0.126 C 
ENDBRANCH   1  25
BRANCH   2  27
ATOM     27  C04 MOL     1      -8.349  -0.213  11.477  1.00  0.00    -0.266 C 
BRANCH  27  28
ATOM     28  C05 MOL     1      -7.204   0.453  10.756  1.00  0.00     0.870 C 
ATOM     29  O06 MOL     1      -6.712   1.515  11.085  1.00  0.00    -0.820 OA
ATOM     30  O07 MOL     1      -6.669  -0.180   9.783  1.00  0.00    -0.676 OA
ENDBRANCH  27  28
ENDBRANCH   2  27
TORSDOF 9
ENDMDL
MODEL 11
REMARK VINA RESULT:      -5.3     14.334     16.637
REMARK  9 active torsions:
REMARK  status: ('A' for Active; 'I' for Inactive)
REMARK    1  A    between atoms: C01_2  and  C02_3 
REMARK    2  A    between atoms: C03_4  and  C04_5 
REMARK    3  A    between atoms: C04_5  and  C05_6 
REMARK    4  A    between atoms: C09_10  and  C0A_11 
REMARK    5  A    between atoms: C0A_11  and  C0B_12 
REMARK       I    between atoms: C0B_12  and  N0C_13 
REMARK    6  A    between atoms: C0E_15  and  C0F_16 
REMARK    7  A    between atoms: C0F_16  and  C0G_17 
REMARK    8  A    between atoms: C0N_23  and  C0O_24 
REMARK    9  A    between atoms: C0O_24  and  N0P_25 
ROOT
ATOM      1  C02 MOL     1      -3.025   5.714 -19.423  1.00  0.00    -0.044 C 
ATOM      2  C03 MOL     1      -3.644   6.391 -20.482  1.00  0.00     0.129 C 
ATOM      3  C08 MOL     1      -2.965   7.412 -21.261  1.00  0.00    -0.316 C 
ATOM      4  C09 MOL     1      -1.617   7.617 -21.032  1.00  0.00     0.109 C 
ATOM      5  C0E MOL     1      -0.971   7.045 -19.975  1.00  0.00    -0.064 C 
ATOM      6  C0N MOL     1      -1.629   6.028 -19.242  1.00  0.00    -0.120 C 
ENDROOT
BRANCH   5   7
ATOM      7  C0F MOL     1       0.482   7.408 -19.716  1.00  0.00     0.047 C 
BRANCH   7   8
ATOM      8  C0G MOL     1       1.569   6.425 -20.059  1.00  0.00     0.171 C 
ATOM      9  C0M MOL     1       1.521   5.659 -21.242  1.00  0.00    -0.195 C 
ATOM     10  C0K MOL     1       2.543   4.722 -21.546  1.00  0.00    -0.062 C 
ATOM     11  C0J MOL     1       3.534   4.388 -20.619  1.00  0.00    -0.135 C 
ATOM     12  C0I MOL     1       3.535   5.156 -19.416  1.00  0.00    -0.071 C 
ATOM     13  C0H MOL     1       2.600   6.150 -19.217  1.00  0.00    -0.152 C 
ENDBRANCH   7   8
ENDBRANCH   5   7
BRANCH   6  14
ATOM     14  C0O MOL     1      -0.908   5.283 -18.072  1.00  0.00     0.092 C 
BRANCH  14  15
ATOM     15  N0P MOL     1      -0.478   6.120 -16.906  1.00  0.00    -0.153 N 
ATOM     16  H0Q MOL     1       0.408   6.561 -17.095  1.00  0.00     0.257 HD
ATOM     17  H0R MOL     1      -1.122   6.902 -16.839  1.00  0.00     0.244 HD
ATOM     18  H0S MOL     1      -0.384   5.622 -16.032  1.00  0.00     0.246 HD
ENDBRANCH  14  15
ENDBRANCH   6  14
BRANCH   4  19
ATOM     19  C0A MOL     1      -0.882   8.486 -22.079  1.00  0.00    -0.219 C 
BRANCH  19  20
ATOM     20  C0B MOL     1      -0.999  10.029 -21.860  1.00  0.00     0.819 C 
ATOM     21  N0C MOL     1      -1.942  10.648 -22.501  1.00  0.00    -0.993 N 
ATOM     22  H13 MOL     1      -2.561  10.064 -23.059  1.00  0.00     0.395 HD
ATOM     23  H14 MOL     1      -2.013  11.649 -22.465  1.00  0.00     0.440 HD
ATOM     24  O0D MOL     1      -0.285  10.599 -21.055  1.00  0.00    -0.614 OA
ENDBRANCH  19  20
ENDBRANCH   4  19
BRANCH   1  25
ATOM     25  C01 MOL     1      -3.747   4.663 -18.552  1.00  0.00    -0.066 C 
ATOM     26  C00 MOL     1      -5.078   5.250 -17.876  1.00  0.00    -0.126 C 
ENDBRANCH   1  25
BRANCH   2  27
ATOM     27  C04 MOL     1      -5.097   6.242 -20.875  1.00  0.00    -0.266 C 
BRANCH  27  28
ATOM     28  C05 MOL     1      -5.914   7.508 -20.814  1.00  0.00     0.870 C 
ATOM     29  O06 MOL     1      -6.071   8.174 -19.809  1.00  0.00    -0.820 OA
ATOM     30  O07 MOL     1      -6.408   7.947 -21.907  1.00  0.00    -0.676 OA
ENDBRANCH  27  28
ENDBRANCH   2  27
TORSDOF 9
ENDMDL
MODEL 12
REMARK VINA RESULT:      -5.3      2.724      6.095
REMARK  9 active torsions:
REMARK  status: ('A' for Active; 'I' for Inactive)
REMARK    1  A    between atoms: C01_2  and  C02_3 
REMARK    2  A    between atoms: C03_4  and  C04_5 
REMARK    3  A    between atoms: C04_5  and  C05_6 
REMARK    4  A    between atoms: C09_10  and  C0A_11 
REMARK    5  A    between atoms: C0A_11  and  C0B_12 
REMARK       I    between atoms: C0B_12  and  N0C_13 
REMARK    6  A    between atoms: C0E_15  and  C0F_16 
REMARK    7  A    between atoms: C0F_16  and  C0G_17 
REMARK    8  A    between atoms: C0N_23  and  C0O_24 
REMARK    9  A    between atoms: C0O_24  and  N0P_25 
ROOT
ATOM      1  C02 MOL     1       1.389  10.385  -2.539  1.00  0.00    -0.044 C 
ATOM      2  C03 MOL     1       0.483   9.875  -1.600  1.00  0.00     0.129 C 
ATOM      3  C08 MOL     1      -0.327   8.696  -1.854  1.00  0.00    -0.316 C 
ATOM      4  C09 MOL     1      -0.087   7.978  -3.010  1.00  0.00     0.109 C 
ATOM      5  C0E MOL     1       0.728   8.453  -3.996  1.00  0.00    -0.064 C 
ATOM      6  C0N MOL     1       1.537   9.583  -3.729  1.00  0.00    -0.120 C 
ENDROOT
BRANCH   5   7
ATOM      7  C0F MOL     1       0.853   7.665  -5.291  1.00  0.00     0.047 C 
BRANCH   7   8
ATOM      8  C0G MOL     1       1.899   6.590  -5.411  1.00  0.00     0.171 C 
ATOM      9  C0M MOL     1       2.841   6.362  -4.387  1.00  0.00    -0.195 C 
ATOM     10  C0K MOL     1       3.834   5.357  -4.520  1.00  0.00    -0.062 C 
ATOM     11  C0J MOL     1       4.036   4.677  -5.724  1.00  0.00    -0.135 C 
ATOM     12  C0I MOL     1       3.088   4.955  -6.754  1.00  0.00    -0.071 C 
ATOM     13  C0H MOL     1       2.056   5.844  -6.537  1.00  0.00    -0.152 C 
ENDBRANCH   7   8
ENDBRANCH   5   7
BRANCH   6  14
ATOM     14  C0O MOL     1       2.547  10.122  -4.794  1.00  0.00     0.092 C 
BRANCH  14  15
ATOM     15  N0P MOL     1       1.984  11.000  -5.869  1.00  0.00    -0.153 N 
ATOM     16  H0Q MOL     1       2.092  11.971  -5.625  1.00  0.00     0.257 HD
ATOM     17  H0R MOL     1       2.573  10.895  -6.689  1.00  0.00     0.244 HD
ATOM     18  H0S MOL     1       1.006  10.851  -6.076  1.00  0.00     0.246 HD
ENDBRANCH  14  15
ENDBRANCH   6  14
BRANCH   4  19
ATOM     19  C0A MOL     1      -0.752   6.584  -3.086  1.00  0.00    -0.219 C 
BRANCH  19  20
ATOM     20  C0B MOL     1      -2.212   6.576  -3.648  1.00  0.00     0.819 C 
ATOM     21  N0C MOL     1      -2.916   5.504  -3.450  1.00  0.00    -0.993 N 
ATOM     22  H13 MOL     1      -2.471   4.773  -2.900  1.00  0.00     0.395 HD
ATOM     23  H14 MOL     1      -3.827   5.410  -3.859  1.00  0.00     0.440 HD
ATOM     24  O0D MOL     1      -2.682   7.571  -4.169  1.00  0.00    -0.614 OA
ENDBRANCH  19  20
ENDBRANCH   4  19
BRANCH   1  25
ATOM     25  C01 MOL     1       2.220  11.666  -2.307  1.00  0.00    -0.066 C 
ATOM     26  C00 MOL     1       3.613  11.357  -1.575  1.00  0.00    -0.126 C 
ENDBRANCH   1  25
BRANCH   2  27
ATOM     27  C04 MOL     1       0.146  10.529  -0.278  1.00  0.00    -0.266 C 
BRANCH  27  28
ATOM     28  C05 MOL     1       0.833   9.936   0.927  1.00  0.00     0.870 C 
ATOM     29  O06 MOL     1       2.016  10.068   1.175  1.00  0.00    -0.820 OA
ATOM     30  O07 MOL     1       0.106   9.322   1.780  1.00  0.00    -0.676 OA
ENDBRANCH  27  28
ENDBRANCH   2  27
TORSDOF 9
ENDMDL
MODEL 13
REMARK VINA RESULT:      -5.2      9.026     11.660
REMARK  9 active torsions:
REMARK  status: ('A' for Active; 'I' for Inactive)
REMARK    1  A    between atoms: C01_2  and  C02_3 
REMARK    2  A    between atoms: C03_4  and  C04_5 
REMARK    3  A    between atoms: C04_5  and  C05_6 
REMARK    4  A    between atoms: C09_10  and  C0A_11 
REMARK    5  A    between atoms: C0A_11  and  C0B_12 
REMARK       I    between atoms: C0B_12  and  N0C_13 
REMARK    6  A    between atoms: C0E_15  and  C0F_16 
REMARK    7  A    between atoms: C0F_16  and  C0G_17 
REMARK    8  A    between atoms: C0N_23  and  C0O_24 
REMARK    9  A    between atoms: C0O_24  and  N0P_25 
ROOT
ATOM      1  C02 MOL     1       0.427  11.353   3.763  1.00  0.00    -0.044 C 
ATOM      2  C03 MOL     1      -0.137  12.347   2.952  1.00  0.00     0.129 C 
ATOM      3  C08 MOL     1      -1.213  13.211   3.408  1.00  0.00    -0.316 C 
ATOM      4  C09 MOL     1      -1.592  13.135   4.735  1.00  0.00     0.109 C 
ATOM      5  C0E MOL     1      -1.135  12.147   5.558  1.00  0.00    -0.064 C 
ATOM      6  C0N MOL     1      -0.065  11.332   5.119  1.00  0.00    -0.120 C 
ENDROOT
BRANCH   5   7
ATOM      7  C0F MOL     1      -1.685  12.056   6.973  1.00  0.00     0.047 C 
BRANCH   7   8
ATOM      8  C0G MOL     1      -2.610  10.929   7.342  1.00  0.00     0.171 C 
ATOM      9  C0M MOL     1      -3.554  10.421   6.425  1.00  0.00    -0.195 C 
ATOM     10  C0K MOL     1      -4.434   9.369   6.790  1.00  0.00    -0.062 C 
ATOM     11  C0J MOL     1      -4.531   8.916   8.108  1.00  0.00    -0.135 C 
ATOM     12  C0I MOL     1      -3.586   9.474   9.022  1.00  0.00    -0.071 C 
ATOM     13  C0H MOL     1      -2.658  10.400   8.594  1.00  0.00    -0.152 C 
ENDBRANCH   7   8
ENDBRANCH   5   7
BRANCH   6  14
ATOM     14  C0O MOL     1       0.550  10.237   6.051  1.00  0.00     0.092 C 
BRANCH  14  15
ATOM     15  N0P MOL     1       1.698  10.660   6.916  1.00  0.00    -0.153 N 
ATOM     16  H0Q MOL     1       2.247  11.366   6.454  1.00  0.00     0.257 HD
ATOM     17  H0R MOL     1       1.311  11.148   7.718  1.00  0.00     0.244 HD
ATOM     18  H0S MOL     1       2.329   9.918   7.184  1.00  0.00     0.246 HD
ENDBRANCH  14  15
ENDBRANCH   6  14
BRANCH   4  19
ATOM     19  C0A MOL     1      -2.515  14.269   5.236  1.00  0.00    -0.219 C 
BRANCH  19  20
ATOM     20  C0B MOL     1      -4.014  14.142   4.810  1.00  0.00     0.819 C 
ATOM     21  N0C MOL     1      -4.843  13.671   5.690  1.00  0.00    -0.993 N 
ATOM     22  H13 MOL     1      -4.452  13.468   6.607  1.00  0.00     0.395 HD
ATOM     23  H14 MOL     1      -5.799  13.489   5.445  1.00  0.00     0.440 HD
ATOM     24  O0D MOL     1      -4.388  14.551   3.726  1.00  0.00    -0.614 OA
ENDBRANCH  19  20
ENDBRANCH   4  19
BRANCH   1  25
ATOM     25  C01 MOL     1       1.535  10.392   3.279  1.00  0.00    -0.066 C 
ATOM     26  C00 MOL     1       2.996  11.041   3.410  1.00  0.00    -0.126 C 
ENDBRANCH   1  25
BRANCH   2  27
ATOM     27  C04 MOL     1       0.204  12.575   1.497  1.00  0.00    -0.266 C 
BRANCH  27  28
ATOM     28  C05 MOL     1       1.260  13.619   1.238  1.00  0.00     0.870 C 
ATOM     29  O06 MOL     1       1.867  14.211   2.111  1.00  0.00    -0.820 OA
ATOM     30  O07 MOL     1       1.592  13.838   0.024  1.00  0.00    -0.676 OA
ENDBRANCH  27  28
ENDBRANCH   2  27
TORSDOF 9
ENDMDL
MODEL 14
REMARK VINA RESULT:      -5.2      3.891      6.503
REMARK  9 active torsions:
REMARK  status: ('A' for Active; 'I' for Inactive)
REMARK    1  A    between atoms: C01_2  and  C02_3 
REMARK    2  A    between atoms: C03_4  and  C04_5 
REMARK    3  A    between atoms: C04_5  and  C05_6 
REMARK    4  A    between atoms: C09_10  and  C0A_11 
REMARK    5  A    between atoms: C0A_11  and  C0B_12 
REMARK       I    between atoms: C0B_12  and  N0C_13 
REMARK    6  A    between atoms: C0E_15  and  C0F_16 
REMARK    7  A    between atoms: C0F_16  and  C0G_17 
REMARK    8  A    between atoms: C0N_23  and  C0O_24 
REMARK    9  A    between atoms: C0O_24  and  N0P_25 
ROOT
ATOM      1  C02 MOL     1       1.433  10.160  -2.393  1.00  0.00    -0.044 C 
ATOM      2  C03 MOL     1       0.387  10.653  -3.184  1.00  0.00     0.129 C 
ATOM      3  C08 MOL     1       0.502  10.813  -4.623  1.00  0.00    -0.316 C 
ATOM      4  C09 MOL     1       1.639  10.330  -5.243  1.00  0.00     0.109 C 
ATOM      5  C0E MOL     1       2.722   9.903  -4.530  1.00  0.00    -0.064 C 
ATOM      6  C0N MOL     1       2.590   9.719  -3.133  1.00  0.00    -0.120 C 
ENDROOT
BRANCH   5   7
ATOM      7  C0F MOL     1       3.981   9.495  -5.278  1.00  0.00     0.047 C 
BRANCH   7   8
ATOM      8  C0G MOL     1       4.912  10.554  -5.803  1.00  0.00     0.171 C 
ATOM      9  C0M MOL     1       5.174  11.732  -5.073  1.00  0.00    -0.195 C 
ATOM     10  C0K MOL     1       6.041  12.732  -5.587  1.00  0.00    -0.062 C 
ATOM     11  C0J MOL     1       6.525  12.682  -6.897  1.00  0.00    -0.135 C 
ATOM     12  C0I MOL     1       6.214  11.494  -7.624  1.00  0.00    -0.071 C 
ATOM     13  C0H MOL     1       5.478  10.485  -7.038  1.00  0.00    -0.152 C 
ENDBRANCH   7   8
ENDBRANCH   5   7
BRANCH   6  14
ATOM     14  C0O MOL     1       3.774   9.157  -2.279  1.00  0.00     0.092 C 
BRANCH  14  15
ATOM     15  N0P MOL     1       4.804  10.146  -1.827  1.00  0.00    -0.153 N 
ATOM     16  H0Q MOL     1       5.006  10.806  -2.560  1.00  0.00     0.257 HD
ATOM     17  H0R MOL     1       4.380  10.718  -1.103  1.00  0.00     0.244 HD
ATOM     18  H0S MOL     1       5.684   9.745  -1.534  1.00  0.00     0.246 HD
ENDBRANCH  14  15
ENDBRANCH   6  14
BRANCH   4  19
ATOM     19  C0A MOL     1       1.581  10.251  -6.786  1.00  0.00    -0.219 C 
BRANCH  19  20
ATOM     20  C0B MOL     1       1.573  11.630  -7.522  1.00  0.00     0.819 C 
ATOM     21  N0C MOL     1       0.521  11.922  -8.223  1.00  0.00    -0.993 N 
ATOM     22  H13 MOL     1      -0.236  11.243  -8.195  1.00  0.00     0.395 HD
ATOM     23  H14 MOL     1       0.496  12.755  -8.782  1.00  0.00     0.440 HD
ATOM     24  O0D MOL     1       2.484  12.423  -7.363  1.00  0.00    -0.614 OA
ENDBRANCH  19  20
ENDBRANCH   4  19
BRANCH   1  25
ATOM     25  C01 MOL     1       1.347  10.031  -0.856  1.00  0.00    -0.066 C 
ATOM     26  C00 MOL     1       1.746  11.395  -0.113  1.00  0.00    -0.126 C 
ENDBRANCH   1  25
BRANCH   2  27
ATOM     27  C04 MOL     1      -0.927  11.180  -2.651  1.00  0.00    -0.266 C 
BRANCH  27  28
ATOM     28  C05 MOL     1      -2.046  10.171  -2.586  1.00  0.00     0.870 C 
ATOM     29  O06 MOL     1      -2.851   9.982  -3.477  1.00  0.00    -0.820 OA
ATOM     30  O07 MOL     1      -2.102   9.415  -1.557  1.00  0.00    -0.676 OA
ENDBRANCH  27  28
ENDBRANCH   2  27
TORSDOF 9
ENDMDL
MODEL 15
REMARK VINA RESULT:      -5.2      3.865      7.137
REMARK  9 active torsions:
REMARK  status: ('A' for Active; 'I' for Inactive)
REMARK    1  A    between atoms: C01_2  and  C02_3 
REMARK    2  A    between atoms: C03_4  and  C04_5 
REMARK    3  A    between atoms: C04_5  and  C05_6 
REMARK    4  A    between atoms: C09_10  and  C0A_11 
REMARK    5  A    between atoms: C0A_11  and  C0B_12 
REMARK       I    between atoms: C0B_12  and  N0C_13 
REMARK    6  A    between atoms: C0E_15  and  C0F_16 
REMARK    7  A    between atoms: C0F_16  and  C0G_17 
REMARK    8  A    between atoms: C0N_23  and  C0O_24 
REMARK    9  A    between atoms: C0O_24  and  N0P_25 
ROOT
ATOM      1  C02 MOL     1       0.950   9.964  -3.023  1.00  0.00    -0.044 C 
ATOM      2  C03 MOL     1       1.698   9.889  -1.840  1.00  0.00     0.129 C 
ATOM      3  C08 MOL     1       2.662   8.832  -1.590  1.00  0.00    -0.316 C 
ATOM      4  C09 MOL     1       2.946   7.952  -2.617  1.00  0.00     0.109 C 
ATOM      5  C0E MOL     1       2.209   7.925  -3.766  1.00  0.00    -0.064 C 
ATOM      6  C0N MOL     1       1.295   8.977  -4.016  1.00  0.00    -0.120 C 
ENDROOT
BRANCH   5   7
ATOM      7  C0F MOL     1       2.503   6.853  -4.804  1.00  0.00     0.047 C 
BRANCH   7   8
ATOM      8  C0G MOL     1       1.574   5.678  -4.946  1.00  0.00     0.171 C 
ATOM      9  C0M MOL     1       1.265   5.132  -6.209  1.00  0.00    -0.195 C 
ATOM     10  C0K MOL     1       0.374   4.035  -6.332  1.00  0.00    -0.062 C 
ATOM     11  C0J MOL     1      -0.369   3.566  -5.245  1.00  0.00    -0.135 C 
ATOM     12  C0I MOL     1      -0.060   4.163  -3.985  1.00  0.00    -0.071 C 
ATOM     13  C0H MOL     1       0.910   5.137  -3.889  1.00  0.00    -0.152 C 
ENDBRANCH   7   8
ENDBRANCH   5   7
BRANCH   6  14
ATOM     14  C0O MOL     1       0.483   9.039  -5.351  1.00  0.00     0.092 C 
BRANCH  14  15
ATOM     15  N0P MOL     1      -0.787   8.246  -5.401  1.00  0.00    -0.153 N 
ATOM     16  H0Q MOL     1      -1.195   8.290  -6.321  1.00  0.00     0.257 HD
ATOM     17  H0R MOL     1      -0.539   7.266  -5.299  1.00  0.00     0.244 HD
ATOM     18  H0S MOL     1      -1.498   8.533  -4.744  1.00  0.00     0.246 HD
ENDBRANCH  14  15
ENDBRANCH   6  14
BRANCH   4  19
ATOM     19  C0A MOL     1       4.181   7.047  -2.406  1.00  0.00    -0.219 C 
BRANCH  19  20
ATOM     20  C0B MOL     1       5.293   7.646  -1.485  1.00  0.00     0.819 C 
ATOM     21  N0C MOL     1       6.061   8.558  -1.999  1.00  0.00    -0.993 N 
ATOM     22  H13 MOL     1       5.841   8.841  -2.951  1.00  0.00     0.395 HD
ATOM     23  H14 MOL     1       6.843   8.917  -1.483  1.00  0.00     0.440 HD
ATOM     24  O0D MOL     1       5.368   7.326  -0.312  1.00  0.00    -0.614 OA
ENDBRANCH  19  20
ENDBRANCH   4  19
BRANCH   1  25
ATOM     25  C01 MOL     1      -0.116  11.051  -3.285  1.00  0.00    -0.066 C 
ATOM     26  C00 MOL     1      -1.545  10.655  -2.674  1.00  0.00    -0.126 C 
ENDBRANCH   1  25
BRANCH   2  27
ATOM     27  C04 MOL     1       1.526  10.803  -0.648  1.00  0.00    -0.266 C 
BRANCH  27  28
ATOM     28  C05 MOL     1       0.963  10.150   0.589  1.00  0.00     0.870 C 
ATOM     29  O06 MOL     1       1.550  10.072   1.651  1.00  0.00    -0.820 OA
ATOM     30  O07 MOL     1      -0.239   9.721   0.537  1.00  0.00    -0.676 OA
ENDBRANCH  27  28
ENDBRANCH   2  27
TORSDOF 9
ENDMDL
MODEL 16
REMARK VINA RESULT:      -5.2      4.195      6.177
REMARK  9 active torsions:
REMARK  status: ('A' for Active; 'I' for Inactive)
REMARK    1  A    between atoms: C01_2  and  C02_3 
REMARK    2  A    between atoms: C03_4  and  C04_5 
REMARK    3  A    between atoms: C04_5  and  C05_6 
REMARK    4  A    between atoms: C09_10  and  C0A_11 
REMARK    5  A    between atoms: C0A_11  and  C0B_12 
REMARK       I    between atoms: C0B_12  and  N0C_13 
REMARK    6  A    between atoms: C0E_15  and  C0F_16 
REMARK    7  A    between atoms: C0F_16  and  C0G_17 
REMARK    8  A    between atoms: C0N_23  and  C0O_24 
REMARK    9  A    between atoms: C0O_24  and  N0P_25 
ROOT
ATOM      1  C02 MOL     1       3.756  11.126  -1.330  1.00  0.00    -0.044 C 
ATOM      2  C03 MOL     1       3.117  11.465  -2.531  1.00  0.00     0.129 C 
ATOM      3  C08 MOL     1       1.688  11.295  -2.731  1.00  0.00    -0.316 C 
ATOM      4  C09 MOL     1       0.919  10.916  -1.647  1.00  0.00     0.109 C 
ATOM      5  C0E MOL     1       1.482  10.506  -0.473  1.00  0.00    -0.064 C 
ATOM      6  C0N MOL     1       2.869  10.705  -0.274  1.00  0.00    -0.120 C 
ENDROOT
BRANCH   5   7
ATOM      7  C0F MOL     1       0.578   9.992   0.637  1.00  0.00     0.047 C 
BRANCH   7   8
ATOM      8  C0G MOL     1       0.053  10.948   1.674  1.00  0.00     0.171 C 
ATOM      9  C0M MOL     1       0.205  12.342   1.533  1.00  0.00    -0.195 C 
ATOM     10  C0K MOL     1      -0.278  13.233   2.526  1.00  0.00    -0.062 C 
ATOM     11  C0J MOL     1      -0.759  12.773   3.756  1.00  0.00    -0.135 C 
ATOM     12  C0I MOL     1      -0.868  11.355   3.881  1.00  0.00    -0.071 C 
ATOM     13  C0H MOL     1      -0.509  10.528   2.838  1.00  0.00    -0.152 C 
ENDBRANCH   7   8
ENDBRANCH   5   7
BRANCH   6  14
ATOM     14  C0O MOL     1       3.551  10.328   1.081  1.00  0.00     0.092 C 
BRANCH  14  15
ATOM     15  N0P MOL     1       3.959   8.896   1.251  1.00  0.00    -0.153 N 
ATOM     16  H0Q MOL     1       3.798   8.379   0.402  1.00  0.00     0.257 HD
ATOM     17  H0R MOL     1       4.969   8.877   1.354  1.00  0.00     0.244 HD
ATOM     18  H0S MOL     1       3.487   8.402   1.996  1.00  0.00     0.246 HD
ENDBRANCH  14  15
ENDBRANCH   6  14
BRANCH   4  19
ATOM     19  C0A MOL     1      -0.611  11.042  -1.831  1.00  0.00    -0.219 C 
BRANCH  19  20
ATOM     20  C0B MOL     1      -1.313   9.781  -2.432  1.00  0.00     0.819 C 
ATOM     21  N0C MOL     1      -1.284   9.645  -3.722  1.00  0.00    -0.993 N 
ATOM     22  H13 MOL     1      -0.760  10.351  -4.233  1.00  0.00     0.395 HD
ATOM     23  H14 MOL     1      -1.788   8.901  -4.168  1.00  0.00     0.440 HD
ATOM     24  O0D MOL     1      -1.787   8.928  -1.703  1.00  0.00    -0.614 OA
ENDBRANCH  19  20
ENDBRANCH   4  19
BRANCH   1  25
ATOM     25  C01 MOL     1       5.281  11.252  -1.117  1.00  0.00    -0.066 C 
ATOM     26  C00 MOL     1       6.070   9.949  -1.620  1.00  0.00    -0.126 C 
ENDBRANCH   1  25
BRANCH   2  27
ATOM     27  C04 MOL     1       3.821  11.929  -3.786  1.00  0.00    -0.266 C 
BRANCH  27  28
ATOM     28  C05 MOL     1       3.780  10.962  -4.943  1.00  0.00     0.870 C 
ATOM     29  O06 MOL     1       3.241  11.191  -6.008  1.00  0.00    -0.820 OA
ATOM     30  O07 MOL     1       4.423   9.865  -4.820  1.00  0.00    -0.676 OA
ENDBRANCH  27  28
ENDBRANCH   2  27
TORSDOF 9
ENDMDL
MODEL 17
REMARK VINA RESULT:      -5.2      4.883      7.230
REMARK  9 active torsions:
REMARK  status: ('A' for Active; 'I' for Inactive)
REMARK    1  A    between atoms: C01_2  and  C02_3 
REMARK    2  A    between atoms: C03_4  and  C04_5 
REMARK    3  A    between atoms: C04_5  and  C05_6 
REMARK    4  A    between atoms: C09_10  and  C0A_11 
REMARK    5  A    between atoms: C0A_11  and  C0B_12 
REMARK       I    between atoms: C0B_12  and  N0C_13 
REMARK    6  A    between atoms: C0E_15  and  C0F_16 
REMARK    7  A    between atoms: C0F_16  and  C0G_17 
REMARK    8  A    between atoms: C0N_23  and  C0O_24 
REMARK    9  A    between atoms: C0O_24  and  N0P_25 
ROOT
ATOM      1  C02 MOL     1       2.168   9.648  -1.637  1.00  0.00    -0.044 C 
ATOM      2  C03 MOL     1       0.806   9.979  -1.650  1.00  0.00     0.129 C 
ATOM      3  C08 MOL     1       0.147  10.618  -0.524  1.00  0.00    -0.316 C 
ATOM      4  C09 MOL     1       0.927  11.035   0.538  1.00  0.00     0.109 C 
ATOM      5  C0E MOL     1       2.242  10.685   0.646  1.00  0.00    -0.064 C 
ATOM      6  C0N MOL     1       2.885  10.093  -0.467  1.00  0.00    -0.120 C 
ENDROOT
BRANCH   5   7
ATOM      7  C0F MOL     1       3.008  11.081   1.898  1.00  0.00     0.047 C 
BRANCH   7   8
ATOM      8  C0G MOL     1       2.762  10.344   3.187  1.00  0.00     0.171 C 
ATOM      9  C0M MOL     1       2.656   8.938   3.222  1.00  0.00    -0.195 C 
ATOM     10  C0K MOL     1       2.406   8.256   4.441  1.00  0.00    -0.062 C 
ATOM     11  C0J MOL     1       2.078   8.941   5.614  1.00  0.00    -0.135 C 
ATOM     12  C0I MOL     1       2.159  10.364   5.538  1.00  0.00    -0.071 C 
ATOM     13  C0H MOL     1       2.536  10.984   4.365  1.00  0.00    -0.152 C 
ENDBRANCH   7   8
ENDBRANCH   5   7
BRANCH   6  14
ATOM     14  C0O MOL     1       4.408   9.744  -0.426  1.00  0.00     0.092 C 
BRANCH  14  15
ATOM     15  N0P MOL     1       4.780   8.429   0.188  1.00  0.00    -0.153 N 
ATOM     16  H0Q MOL     1       4.879   8.520   1.185  1.00  0.00     0.257 HD
ATOM     17  H0R MOL     1       3.983   7.808   0.084  1.00  0.00     0.244 HD
ATOM     18  H0S MOL     1       5.635   8.019  -0.162  1.00  0.00     0.246 HD
ENDBRANCH  14  15
ENDBRANCH   6  14
BRANCH   4  19
ATOM     19  C0A MOL     1       0.233  11.967   1.558  1.00  0.00    -0.219 C 
BRANCH  19  20
ATOM     20  C0B MOL     1       0.394  13.497   1.276  1.00  0.00     0.819 C 
ATOM     21  N0C MOL     1       1.156  14.170   2.082  1.00  0.00    -0.993 N 
ATOM     22  H13 MOL     1       1.626  13.632   2.806  1.00  0.00     0.395 HD
ATOM     23  H14 MOL     1       1.230  15.167   2.000  1.00  0.00     0.440 HD
ATOM     24  O0D MOL     1      -0.109  14.003   0.290  1.00  0.00    -0.614 OA
ENDBRANCH  19  20
ENDBRANCH   4  19
BRANCH   1  25
ATOM     25  C01 MOL     1       2.875   8.923  -2.803  1.00  0.00    -0.066 C 
ATOM     26  C00 MOL     1       2.663   7.334  -2.743  1.00  0.00    -0.126 C 
ENDBRANCH   1  25
BRANCH   2  27
ATOM     27  C04 MOL     1      -0.161   9.624  -2.756  1.00  0.00    -0.266 C 
BRANCH  27  28
ATOM     28  C05 MOL     1      -1.439  10.424  -2.775  1.00  0.00     0.870 C 
ATOM     29  O06 MOL     1      -2.518  10.002  -2.405  1.00  0.00    -0.820 OA
ATOM     30  O07 MOL     1      -1.366  11.649  -3.132  1.00  0.00    -0.676 OA
ENDBRANCH  27  28
ENDBRANCH   2  27
TORSDOF 9
ENDMDL
MODEL 18
REMARK VINA RESULT:      -5.2     17.527     20.439
REMARK  9 active torsions:
REMARK  status: ('A' for Active; 'I' for Inactive)
REMARK    1  A    between atoms: C01_2  and  C02_3 
REMARK    2  A    between atoms: C03_4  and  C04_5 
REMARK    3  A    between atoms: C04_5  and  C05_6 
REMARK    4  A    between atoms: C09_10  and  C0A_11 
REMARK    5  A    between atoms: C0A_11  and  C0B_12 
REMARK       I    between atoms: C0B_12  and  N0C_13 
REMARK    6  A    between atoms: C0E_15  and  C0F_16 
REMARK    7  A    between atoms: C0F_16  and  C0G_17 
REMARK    8  A    between atoms: C0N_23  and  C0O_24 
REMARK    9  A    between atoms: C0O_24  and  N0P_25 
ROOT
ATOM      1  C02 MOL     1      -4.446   8.967 -22.385  1.00  0.00    -0.044 C 
ATOM      2  C03 MOL     1      -5.200   7.804 -22.179  1.00  0.00     0.129 C 
ATOM      3  C08 MOL     1      -6.372   7.481 -22.975  1.00  0.00    -0.316 C 
ATOM      4  C09 MOL     1      -6.665   8.284 -24.060  1.00  0.00     0.109 C 
ATOM      5  C0E MOL     1      -6.017   9.466 -24.276  1.00  0.00    -0.064 C 
ATOM      6  C0N MOL     1      -4.857   9.758 -23.520  1.00  0.00    -0.120 C 
ENDROOT
BRANCH   5   7
ATOM      7  C0F MOL     1      -6.471  10.355 -25.423  1.00  0.00     0.047 C 
BRANCH   7   8
ATOM      8  C0G MOL     1      -7.508  11.418 -25.177  1.00  0.00     0.171 C 
ATOM      9  C0M MOL     1      -8.873  11.191 -25.452  1.00  0.00    -0.195 C 
ATOM     10  C0K MOL     1      -9.839  12.207 -25.232  1.00  0.00    -0.062 C 
ATOM     11  C0J MOL     1      -9.470  13.517 -24.911  1.00  0.00    -0.135 C 
ATOM     12  C0I MOL     1      -8.078  13.722 -24.675  1.00  0.00    -0.071 C 
ATOM     13  C0H MOL     1      -7.187  12.674 -24.770  1.00  0.00    -0.152 C 
ENDBRANCH   7   8
ENDBRANCH   5   7
BRANCH   6  14
ATOM     14  C0O MOL     1      -4.031  11.059 -23.780  1.00  0.00     0.092 C 
BRANCH  14  15
ATOM     15  N0P MOL     1      -2.910  10.956 -24.768  1.00  0.00    -0.153 N 
ATOM     16  H0Q MOL     1      -2.129  11.522 -24.478  1.00  0.00     0.257 HD
ATOM     17  H0R MOL     1      -2.547  10.009 -24.720  1.00  0.00     0.244 HD
ATOM     18  H0S MOL     1      -3.143  11.231 -25.712  1.00  0.00     0.246 HD
ENDBRANCH  14  15
ENDBRANCH   6  14
BRANCH   4  19
ATOM     19  C0A MOL     1      -7.727   7.732 -25.039  1.00  0.00    -0.219 C 
BRANCH  19  20
ATOM     20  C0B MOL     1      -7.171   6.803 -26.167  1.00  0.00     0.819 C 
ATOM     21  N0C MOL     1      -7.726   5.638 -26.302  1.00  0.00    -0.993 N 
ATOM     22  H13 MOL     1      -8.514   5.445 -25.688  1.00  0.00     0.395 HD
ATOM     23  H14 MOL     1      -7.357   4.969 -26.952  1.00  0.00     0.440 HD
ATOM     24  O0D MOL     1      -6.313   7.203 -26.934  1.00  0.00    -0.614 OA
ENDBRANCH  19  20
ENDBRANCH   4  19
BRANCH   1  25
ATOM     25  C01 MOL     1      -3.228   9.353 -21.518  1.00  0.00    -0.066 C 
ATOM     26  C00 MOL     1      -1.888   8.610 -21.994  1.00  0.00    -0.126 C 
ENDBRANCH   1  25
BRANCH   2  27
ATOM     27  C04 MOL     1      -4.974   6.813 -21.060  1.00  0.00    -0.266 C 
BRANCH  27  28
ATOM     28  C05 MOL     1      -5.568   7.198 -19.729  1.00  0.00     0.870 C 
ATOM     29  O06 MOL     1      -5.444   6.547 -18.710  1.00  0.00    -0.820 OA
ATOM     30  O07 MOL     1      -6.172   8.321 -19.653  1.00  0.00    -0.676 OA
ENDBRANCH  27  28
ENDBRANCH   2  27
TORSDOF 9
ENDMDL
MODEL 19
REMARK VINA RESULT:      -5.1     12.073     15.757
REMARK  9 active torsions:
REMARK  status: ('A' for Active; 'I' for Inactive)
REMARK    1  A    between atoms: C01_2  and  C02_3 
REMARK    2  A    between atoms: C03_4  and  C04_5 
REMARK    3  A    between atoms: C04_5  and  C05_6 
REMARK    4  A    between atoms: C09_10  and  C0A_11 
REMARK    5  A    between atoms: C0A_11  and  C0B_12 
REMARK       I    between atoms: C0B_12  and  N0C_13 
REMARK    6  A    between atoms: C0E_15  and  C0F_16 
REMARK    7  A    between atoms: C0F_16  and  C0G_17 
REMARK    8  A    between atoms: C0N_23  and  C0O_24 
REMARK    9  A    between atoms: C0O_24  and  N0P_25 
ROOT
ATOM      1  C02 MOL     1       0.404   7.670 -17.318  1.00  0.00    -0.044 C 
ATOM      2  C03 MOL     1       0.758   9.024 -17.405  1.00  0.00     0.129 C 
ATOM      3  C08 MOL     1       0.592   9.799 -18.622  1.00  0.00    -0.316 C 
ATOM      4  C09 MOL     1      -0.068   9.211 -19.685  1.00  0.00     0.109 C 
ATOM      5  C0E MOL     1      -0.376   7.881 -19.694  1.00  0.00    -0.064 C 
ATOM      6  C0N MOL     1      -0.242   7.141 -18.495  1.00  0.00    -0.120 C 
ENDROOT
BRANCH   5   7
ATOM      7  C0F MOL     1      -0.996   7.278 -20.944  1.00  0.00     0.047 C 
BRANCH   7   8
ATOM      8  C0G MOL     1      -2.488   7.330 -21.137  1.00  0.00     0.171 C 
ATOM      9  C0M MOL     1      -3.108   8.420 -21.781  1.00  0.00    -0.195 C 
ATOM     10  C0K MOL     1      -4.518   8.467 -21.941  1.00  0.00    -0.062 C 
ATOM     11  C0J MOL     1      -5.360   7.541 -21.320  1.00  0.00    -0.135 C 
ATOM     12  C0I MOL     1      -4.702   6.469 -20.644  1.00  0.00    -0.071 C 
ATOM     13  C0H MOL     1      -3.326   6.389 -20.626  1.00  0.00    -0.152 C 
ENDBRANCH   7   8
ENDBRANCH   5   7
BRANCH   6  14
ATOM     14  C0O MOL     1      -0.656   5.635 -18.427  1.00  0.00     0.092 C 
BRANCH  14  15
ATOM     15  N0P MOL     1      -2.010   5.335 -17.861  1.00  0.00    -0.153 N 
ATOM     16  H0Q MOL     1      -2.691   5.255 -18.597  1.00  0.00     0.257 HD
ATOM     17  H0R MOL     1      -1.976   4.400 -17.467  1.00  0.00     0.244 HD
ATOM     18  H0S MOL     1      -2.360   6.017 -17.202  1.00  0.00     0.246 HD
ENDBRANCH  14  15
ENDBRANCH   6  14
BRANCH   4  19
ATOM     19  C0A MOL     1      -0.483  10.163 -20.830  1.00  0.00    -0.219 C 
BRANCH  19  20
ATOM     20  C0B MOL     1       0.699  10.730 -21.682  1.00  0.00     0.819 C 
ATOM     21  N0C MOL     1       1.522   9.870 -22.200  1.00  0.00    -0.993 N 
ATOM     22  H13 MOL     1       1.298   8.889 -22.045  1.00  0.00     0.395 HD
ATOM     23  H14 MOL     1       2.344  10.178 -22.685  1.00  0.00     0.440 HD
ATOM     24  O0D MOL     1       0.782  11.922 -21.915  1.00  0.00    -0.614 OA
ENDBRANCH  19  20
ENDBRANCH   4  19
BRANCH   1  25
ATOM     25  C01 MOL     1       0.621   6.817 -16.050  1.00  0.00    -0.066 C 
ATOM     26  C00 MOL     1       2.050   6.087 -16.050  1.00  0.00    -0.126 C 
ENDBRANCH   1  25
BRANCH   2  27
ATOM     27  C04 MOL     1       1.449   9.810 -16.314  1.00  0.00    -0.266 C 
BRANCH  27  28
ATOM     28  C05 MOL     1       2.938   9.979 -16.486  1.00  0.00     0.870 C 
ATOM     29  O06 MOL     1       3.568  10.938 -16.086  1.00  0.00    -0.820 OA
ATOM     30  O07 MOL     1       3.586   9.014 -17.017  1.00  0.00    -0.676 OA
ENDBRANCH  27  28
ENDBRANCH   2  27
TORSDOF 9
ENDMDL
MODEL 20
REMARK VINA RESULT:      -5.1     14.200     16.196
REMARK  9 active torsions:
REMARK  status: ('A' for Active; 'I' for Inactive)
REMARK    1  A    between atoms: C01_2  and  C02_3 
REMARK    2  A    between atoms: C03_4  and  C04_5 
REMARK    3  A    between atoms: C04_5  and  C05_6 
REMARK    4  A    between atoms: C09_10  and  C0A_11 
REMARK    5  A    between atoms: C0A_11  and  C0B_12 
REMARK       I    between atoms: C0B_12  and  N0C_13 
REMARK    6  A    between atoms: C0E_15  and  C0F_16 
REMARK    7  A    between atoms: C0F_16  and  C0G_17 
REMARK    8  A    between atoms: C0N_23  and  C0O_24 
REMARK    9  A    between atoms: C0O_24  and  N0P_25 
ROOT
ATOM      1  C02 MOL     1      -4.327   7.192 -20.987  1.00  0.00    -0.044 C 
ATOM      2  C03 MOL     1      -3.939   6.095 -20.204  1.00  0.00     0.129 C 
ATOM      3  C08 MOL     1      -2.552   5.686 -20.064  1.00  0.00    -0.316 C 
ATOM      4  C09 MOL     1      -1.575   6.496 -20.612  1.00  0.00     0.109 C 
ATOM      5  C0E MOL     1      -1.883   7.535 -21.441  1.00  0.00    -0.064 C 
ATOM      6  C0N MOL     1      -3.233   7.948 -21.547  1.00  0.00    -0.120 C 
ENDROOT
BRANCH   5   7
ATOM      7  C0F MOL     1      -0.754   8.310 -22.102  1.00  0.00     0.047 C 
BRANCH   7   8
ATOM      8  C0G MOL     1       0.216   9.084 -21.251  1.00  0.00     0.171 C 
ATOM      9  C0M MOL     1      -0.227  10.032 -20.306  1.00  0.00    -0.195 C 
ATOM     10  C0K MOL     1       0.698  10.769 -19.522  1.00  0.00    -0.062 C 
ATOM     11  C0J MOL     1       2.073  10.724 -19.771  1.00  0.00    -0.135 C 
ATOM     12  C0I MOL     1       2.488   9.781 -20.758  1.00  0.00    -0.071 C 
ATOM     13  C0H MOL     1       1.564   8.988 -21.405  1.00  0.00    -0.152 C 
ENDBRANCH   7   8
ENDBRANCH   5   7
BRANCH   6  14
ATOM     14  C0O MOL     1      -3.633   9.182 -22.420  1.00  0.00     0.092 C 
BRANCH  14  15
ATOM     15  N0P MOL     1      -3.482  10.530 -21.785  1.00  0.00    -0.153 N 
ATOM     16  H0Q MOL     1      -4.378  10.982 -21.696  1.00  0.00     0.257 HD
ATOM     17  H0R MOL     1      -3.193  10.384 -20.822  1.00  0.00     0.244 HD
ATOM     18  H0S MOL     1      -2.873  11.170 -22.276  1.00  0.00     0.246 HD
ENDBRANCH  14  15
ENDBRANCH   6  14
BRANCH   4  19
ATOM     19  C0A MOL     1      -0.123   6.184 -20.181  1.00  0.00    -0.219 C 
BRANCH  19  20
ATOM     20  C0B MOL     1       0.122   6.173 -18.637  1.00  0.00     0.819 C 
ATOM     21  N0C MOL     1      -0.002   7.302 -18.009  1.00  0.00    -0.993 N 
ATOM     22  H13 MOL     1      -0.297   8.096 -18.573  1.00  0.00     0.395 HD
ATOM     23  H14 MOL     1       0.225   7.371 -17.034  1.00  0.00     0.440 HD
ATOM     24  O0D MOL     1       0.334   5.128 -18.049  1.00  0.00    -0.614 OA
ENDBRANCH  19  20
ENDBRANCH   4  19
BRANCH   1  25
ATOM     25  C01 MOL     1      -5.799   7.611 -21.189  1.00  0.00    -0.066 C 
ATOM     26  C00 MOL     1      -6.474   6.860 -22.436  1.00  0.00    -0.126 C 
ENDBRANCH   1  25
BRANCH   2  27
ATOM     27  C04 MOL     1      -4.890   5.145 -19.514  1.00  0.00    -0.266 C 
BRANCH  27  28
ATOM     28  C05 MOL     1      -5.104   5.403 -18.043  1.00  0.00     0.870 C 
ATOM     29  O06 MOL     1      -5.880   6.226 -17.598  1.00  0.00    -0.820 OA
ATOM     30  O07 MOL     1      -4.485   4.652 -17.215  1.00  0.00    -0.676 OA
ENDBRANCH  27  28
ENDBRANCH   2  27
TORSDOF 9
ENDMDL
