MODEL 1
REMARK VINA RESULT:      -6.6      0.000      0.000
REMARK  9 active torsions:
REMARK  status: ('A' for Active; 'I' for Inactive)
REMARK    1  A    between atoms: C01_2  and  C02_3 
REMARK    2  A    between atoms: C03_4  and  C04_5 
REMARK    3  A    between atoms: C04_5  and  C05_6 
REMARK    4  A    between atoms: C09_10  and  C0A_11 
REMARK    5  A    between atoms: C0A_11  and  C0B_12 
REMARK       I    between atoms: C0B_12  and  N0C_13 
REMARK    6  A    between atoms: C0E_15  and  C0F_16 
REMARK    7  A    between atoms: C0F_16  and  C0G_17 
REMARK    8  A    between atoms: C0N_23  and  C0O_24 
REMARK    9  A    between atoms: C0O_24  and  N0P_25 
ROOT
ATOM      1  C02 MOL     1       1.689   6.809  -6.209  1.00  0.00    -0.044 C 
ATOM      2  C03 MOL     1       0.857   5.888  -5.559  1.00  0.00     0.129 C 
ATOM      3  C08 MOL     1      -0.224   6.296  -4.678  1.00  0.00    -0.316 C 
ATOM      4  C09 MOL     1      -0.523   7.642  -4.594  1.00  0.00     0.109 C 
ATOM      5  C0E MOL     1       0.286   8.595  -5.143  1.00  0.00    -0.064 C 
ATOM      6  C0N MOL     1       1.316   8.190  -6.026  1.00  0.00    -0.120 C 
ENDROOT
BRANCH   5   7
ATOM      7  C0F MOL     1      -0.042  10.062  -4.911  1.00  0.00     0.047 C 
BRANCH   7   8
ATOM      8  C0G MOL     1       0.431  10.742  -3.655  1.00  0.00     0.171 C 
ATOM      9  C0M MOL     1       1.805  10.900  -3.377  1.00  0.00    -0.195 C 
ATOM     10  C0K MOL     1       2.239  11.527  -2.180  1.00  0.00    -0.062 C 
ATOM     11  C0J MOL     1       1.347  11.851  -1.154  1.00  0.00    -0.135 C 
ATOM     12  C0I MOL     1      -0.033  11.646  -1.452  1.00  0.00    -0.071 C 
ATOM     13  C0H MOL     1      -0.422  11.156  -2.681  1.00  0.00    -0.152 C 
ENDBRANCH   7   8
ENDBRANCH   5   7
BRANCH   6  14
ATOM     14  C0O MOL     1       2.221   9.243  -6.745  1.00  0.00     0.092 C 
BRANCH  14  15
ATOM     15  N0P MOL     1       1.734   9.757  -8.065  1.00  0.00    -0.153 N 
ATOM     16  H0Q MOL     1       2.509  10.034  -8.645  1.00  0.00     0.257 HD
ATOM     17  H0R MOL     1       1.330   8.972  -8.568  1.00  0.00     0.244 HD
ATOM     18  H0S MOL     1       1.104  10.545  -8.013  1.00  0.00     0.246 HD
ENDBRANCH  14  15
ENDBRANCH   6  14
BRANCH   4  19
ATOM     19  C0A MOL     1      -1.855   7.993  -3.891  1.00  0.00    -0.219 C 
BRANCH  19  20
ATOM     20  C0B MOL     1      -2.993   8.493  -4.839  1.00  0.00     0.819 C 
ATOM     21  N0C MOL     1      -3.281   7.750  -5.863  1.00  0.00    -0.993 N 
ATOM     22  H13 MOL     1      -2.770   6.873  -5.936  1.00  0.00     0.395 HD
ATOM     23  H14 MOL     1      -3.944   8.061  -6.549  1.00  0.00     0.440 HD
ATOM     24  O0D MOL     1      -3.632   9.494  -4.568  1.00  0.00    -0.614 OA
ENDBRANCH  19  20
ENDBRANCH   4  19
BRANCH   1  25
ATOM     25  C01 MOL     1       2.874   6.394  -7.108  1.00  0.00    -0.066 C 
ATOM     26  C00 MOL     1       2.404   6.040  -8.601  1.00  0.00    -0.126 C 
ENDBRANCH   1  25
BRANCH   2  27
ATOM     27  C04 MOL     1       1.036   4.387  -5.589  1.00  0.00    -0.266 C 
BRANCH  27  28
ATOM     28  C05 MOL     1      -0.062   3.620  -6.283  1.00  0.00     0.870 C 
ATOM     29  O06 MOL     1      -0.227   3.600  -7.487  1.00  0.00    -0.820 OA
ATOM     30  O07 MOL     1      -0.817   2.885  -5.561  1.00  0.00    -0.676 OA
ENDBRANCH  27  28
ENDBRANCH   2  27
TORSDOF 9
ENDMDL
MODEL 2
REMARK VINA RESULT:      -6.0      3.321      6.899
REMARK  9 active torsions:
REMARK  status: ('A' for Active; 'I' for Inactive)
REMARK    1  A    between atoms: C01_2  and  C02_3 
REMARK    2  A    between atoms: C03_4  and  C04_5 
REMARK    3  A    between atoms: C04_5  and  C05_6 
REMARK    4  A    between atoms: C09_10  and  C0A_11 
REMARK    5  A    between atoms: C0A_11  and  C0B_12 
REMARK       I    between atoms: C0B_12  and  N0C_13 
REMARK    6  A    between atoms: C0E_15  and  C0F_16 
REMARK    7  A    between atoms: C0F_16  and  C0G_17 
REMARK    8  A    between atoms: C0N_23  and  C0O_24 
REMARK    9  A    between atoms: C0O_24  and  N0P_25 
ROOT
ATOM      1  C02 MOL     1       0.691  11.024  -2.371  1.00  0.00    -0.044 C 
ATOM      2  C03 MOL     1       2.011  11.181  -2.814  1.00  0.00     0.129 C 
ATOM      3  C08 MOL     1       2.557  10.428  -3.930  1.00  0.00    -0.316 C 
ATOM      4  C09 MOL     1       1.696   9.632  -4.662  1.00  0.00     0.109 C 
ATOM      5  C0E MOL     1       0.421   9.380  -4.247  1.00  0.00    -0.064 C 
ATOM      6  C0N MOL     1      -0.114  10.141  -3.180  1.00  0.00    -0.120 C 
ENDROOT
BRANCH   5   7
ATOM      7  C0F MOL     1      -0.431   8.401  -5.040  1.00  0.00     0.047 C 
BRANCH   7   8
ATOM      8  C0G MOL     1      -0.449   6.947  -4.656  1.00  0.00     0.171 C 
ATOM      9  C0M MOL     1      -1.379   6.443  -3.723  1.00  0.00    -0.195 C 
ATOM     10  C0K MOL     1      -1.374   5.072  -3.356  1.00  0.00    -0.062 C 
ATOM     11  C0J MOL     1      -0.352   4.207  -3.755  1.00  0.00    -0.135 C 
ATOM     12  C0I MOL     1       0.595   4.756  -4.671  1.00  0.00    -0.071 C 
ATOM     13  C0H MOL     1       0.477   6.059  -5.106  1.00  0.00    -0.152 C 
ENDBRANCH   7   8
ENDBRANCH   5   7
BRANCH   6  14
ATOM     14  C0O MOL     1      -1.595   9.950  -2.715  1.00  0.00     0.092 C 
BRANCH  14  15
ATOM     15  N0P MOL     1      -2.642  10.689  -3.490  1.00  0.00    -0.153 N 
ATOM     16  H0Q MOL     1      -3.538  10.239  -3.393  1.00  0.00     0.257 HD
ATOM     17  H0R MOL     1      -2.778  11.588  -3.037  1.00  0.00     0.244 HD
ATOM     18  H0S MOL     1      -2.459  10.780  -4.479  1.00  0.00     0.246 HD
ENDBRANCH  14  15
ENDBRANCH   6  14
BRANCH   4  19
ATOM     19  C0A MOL     1       2.251   9.098  -6.002  1.00  0.00    -0.219 C 
BRANCH  19  20
ATOM     20  C0B MOL     1       2.316  10.147  -7.159  1.00  0.00     0.819 C 
ATOM     21  N0C MOL     1       1.208  10.418  -7.777  1.00  0.00    -0.993 N 
ATOM     22  H13 MOL     1       0.374   9.956  -7.421  1.00  0.00     0.395 HD
ATOM     23  H14 MOL     1       1.205  11.020  -8.580  1.00  0.00     0.440 HD
ATOM     24  O0D MOL     1       3.352  10.741  -7.401  1.00  0.00    -0.614 OA
ENDBRANCH  19  20
ENDBRANCH   4  19
BRANCH   1  25
ATOM     25  C01 MOL     1       0.108  11.777  -1.155  1.00  0.00    -0.066 C 
ATOM     26  C00 MOL     1       0.398  11.012   0.225  1.00  0.00    -0.126 C 
ENDBRANCH   1  25
BRANCH   2  27
ATOM     27  C04 MOL     1       3.053  12.045  -2.140  1.00  0.00    -0.266 C 
BRANCH  27  28
ATOM     28  C05 MOL     1       4.157  11.294  -1.439  1.00  0.00     0.870 C 
ATOM     29  O06 MOL     1       5.342  11.459  -1.654  1.00  0.00    -0.820 OA
ATOM     30  O07 MOL     1       3.825  10.488  -0.505  1.00  0.00    -0.676 OA
ENDBRANCH  27  28
ENDBRANCH   2  27
TORSDOF 9
ENDMDL
MODEL 3
REMARK VINA RESULT:      -5.9      2.151      3.828
REMARK  9 active torsions:
REMARK  status: ('A' for Active; 'I' for Inactive)
REMARK    1  A    between atoms: C01_2  and  C02_3 
REMARK    2  A    between atoms: C03_4  and  C04_5 
REMARK    3  A    between atoms: C04_5  and  C05_6 
REMARK    4  A    between atoms: C09_10  and  C0A_11 
REMARK    5  A    between atoms: C0A_11  and  C0B_12 
REMARK       I    between atoms: C0B_12  and  N0C_13 
REMARK    6  A    between atoms: C0E_15  and  C0F_16 
REMARK    7  A    between atoms: C0F_16  and  C0G_17 
REMARK    8  A    between atoms: C0N_23  and  C0O_24 
REMARK    9  A    between atoms: C0O_24  and  N0P_25 
ROOT
ATOM      1  C02 MOL     1       0.451   5.609  -4.710  1.00  0.00    -0.044 C 
ATOM      2  C03 MOL     1       1.424   6.063  -5.611  1.00  0.00     0.129 C 
ATOM      3  C08 MOL     1       1.560   7.463  -5.975  1.00  0.00    -0.316 C 
ATOM      4  C09 MOL     1       0.789   8.390  -5.300  1.00  0.00     0.109 C 
ATOM      5  C0E MOL     1      -0.223   8.013  -4.465  1.00  0.00    -0.064 C 
ATOM      6  C0N MOL     1      -0.328   6.653  -4.090  1.00  0.00    -0.120 C 
ENDROOT
BRANCH   5   7
ATOM      7  C0F MOL     1      -1.106   9.086  -3.848  1.00  0.00     0.047 C 
BRANCH   7   8
ATOM      8  C0G MOL     1      -0.643   9.814  -2.615  1.00  0.00     0.171 C 
ATOM      9  C0M MOL     1      -0.608  11.223  -2.562  1.00  0.00    -0.195 C 
ATOM     10  C0K MOL     1      -0.153  11.898  -1.400  1.00  0.00    -0.062 C 
ATOM     11  C0J MOL     1       0.443  11.214  -0.337  1.00  0.00    -0.135 C 
ATOM     12  C0I MOL     1       0.425   9.790  -0.436  1.00  0.00    -0.071 C 
ATOM     13  C0H MOL     1      -0.148   9.169  -1.526  1.00  0.00    -0.152 C 
ENDBRANCH   7   8
ENDBRANCH   5   7
BRANCH   6  14
ATOM     14  C0O MOL     1      -1.418   6.178  -3.074  1.00  0.00     0.092 C 
BRANCH  14  15
ATOM     15  N0P MOL     1      -2.766   5.854  -3.640  1.00  0.00    -0.153 N 
ATOM     16  H0Q MOL     1      -2.706   5.070  -4.270  1.00  0.00     0.257 HD
ATOM     17  H0R MOL     1      -3.340   5.503  -2.879  1.00  0.00     0.244 HD
ATOM     18  H0S MOL     1      -3.213   6.608  -4.143  1.00  0.00     0.246 HD
ENDBRANCH  14  15
ENDBRANCH   6  14
BRANCH   4  19
ATOM     19  C0A MOL     1       1.183   9.871  -5.507  1.00  0.00    -0.219 C 
BRANCH  19  20
ATOM     20  C0B MOL     1       1.903  10.184  -6.859  1.00  0.00     0.819 C 
ATOM     21  N0C MOL     1       1.151  10.421  -7.890  1.00  0.00    -0.993 N 
ATOM     22  H13 MOL     1       0.148  10.431  -7.718  1.00  0.00     0.395 HD
ATOM     23  H14 MOL     1       1.556  10.545  -8.799  1.00  0.00     0.440 HD
ATOM     24  O0D MOL     1       3.115  10.282  -6.909  1.00  0.00    -0.614 OA
ENDBRANCH  19  20
ENDBRANCH   4  19
BRANCH   1  25
ATOM     25  C01 MOL     1       0.259   4.120  -4.350  1.00  0.00    -0.066 C 
ATOM     26  C00 MOL     1      -0.604   3.339  -5.454  1.00  0.00    -0.126 C 
ENDBRANCH   1  25
BRANCH   2  27
ATOM     27  C04 MOL     1       2.363   5.173  -6.393  1.00  0.00    -0.266 C 
BRANCH  27  28
ATOM     28  C05 MOL     1       2.036   5.019  -7.857  1.00  0.00     0.870 C 
ATOM     29  O06 MOL     1       0.910   4.891  -8.297  1.00  0.00    -0.820 OA
ATOM     30  O07 MOL     1       2.999   5.108  -8.691  1.00  0.00    -0.676 OA
ENDBRANCH  27  28
ENDBRANCH   2  27
TORSDOF 9
ENDMDL
MODEL 4
REMARK VINA RESULT:      -5.9     13.595     16.447
REMARK  9 active torsions:
REMARK  status: ('A' for Active; 'I' for Inactive)
REMARK    1  A    between atoms: C01_2  and  C02_3 
REMARK    2  A    between atoms: C03_4  and  C04_5 
REMARK    3  A    between atoms: C04_5  and  C05_6 
REMARK    4  A    between atoms: C09_10  and  C0A_11 
REMARK    5  A    between atoms: C0A_11  and  C0B_12 
REMARK       I    between atoms: C0B_12  and  N0C_13 
REMARK    6  A    between atoms: C0E_15  and  C0F_16 
REMARK    7  A    between atoms: C0F_16  and  C0G_17 
REMARK    8  A    between atoms: C0N_23  and  C0O_24 
REMARK    9  A    between atoms: C0O_24  and  N0P_25 
ROOT
ATOM      1  C02 MOL     1      -0.939   8.046 -20.309  1.00  0.00    -0.044 C 
ATOM      2  C03 MOL     1      -0.906   6.766 -19.738  1.00  0.00     0.129 C 
ATOM      3  C08 MOL     1      -2.111   6.025 -19.410  1.00  0.00    -0.316 C 
ATOM      4  C09 MOL     1      -3.327   6.549 -19.806  1.00  0.00     0.109 C 
ATOM      5  C0E MOL     1      -3.437   7.816 -20.302  1.00  0.00    -0.064 C 
ATOM      6  C0N MOL     1      -2.259   8.519 -20.649  1.00  0.00    -0.120 C 
ENDROOT
BRANCH   5   7
ATOM      7  C0F MOL     1      -4.820   8.370 -20.607  1.00  0.00     0.047 C 
BRANCH   7   8
ATOM      8  C0G MOL     1      -5.470   8.065 -21.930  1.00  0.00     0.171 C 
ATOM      9  C0M MOL     1      -5.076   8.724 -23.112  1.00  0.00    -0.195 C 
ATOM     10  C0K MOL     1      -5.708   8.441 -24.351  1.00  0.00    -0.062 C 
ATOM     11  C0J MOL     1      -6.853   7.643 -24.427  1.00  0.00    -0.135 C 
ATOM     12  C0I MOL     1      -7.249   7.018 -23.206  1.00  0.00    -0.071 C 
ATOM     13  C0H MOL     1      -6.526   7.216 -22.049  1.00  0.00    -0.152 C 
ENDBRANCH   7   8
ENDBRANCH   5   7
BRANCH   6  14
ATOM     14  C0O MOL     1      -2.329   9.941 -21.295  1.00  0.00     0.092 C 
BRANCH  14  15
ATOM     15  N0P MOL     1      -1.962  10.040 -22.744  1.00  0.00    -0.153 N 
ATOM     16  H0Q MOL     1      -0.991  10.285 -22.848  1.00  0.00     0.257 HD
ATOM     17  H0R MOL     1      -2.014   9.104 -23.136  1.00  0.00     0.244 HD
ATOM     18  H0S MOL     1      -2.498  10.710 -23.277  1.00  0.00     0.246 HD
ENDBRANCH  14  15
ENDBRANCH   6  14
BRANCH   4  19
ATOM     19  C0A MOL     1      -4.537   5.593 -19.706  1.00  0.00    -0.219 C 
BRANCH  19  20
ATOM     20  C0B MOL     1      -5.118   5.406 -18.266  1.00  0.00     0.819 C 
ATOM     21  N0C MOL     1      -4.740   4.355 -17.606  1.00  0.00    -0.993 N 
ATOM     22  H13 MOL     1      -4.055   3.761 -18.067  1.00  0.00     0.395 HD
ATOM     23  H14 MOL     1      -5.144   4.141 -16.713  1.00  0.00     0.440 HD
ATOM     24  O0D MOL     1      -5.824   6.263 -17.766  1.00  0.00    -0.614 OA
ENDBRANCH  19  20
ENDBRANCH   4  19
BRANCH   1  25
ATOM     25  C01 MOL     1       0.330   8.870 -20.617  1.00  0.00    -0.066 C 
ATOM     26  C00 MOL     1       0.788   9.764 -19.366  1.00  0.00    -0.126 C 
ENDBRANCH   1  25
BRANCH   2  27
ATOM     27  C04 MOL     1       0.348   6.050 -19.290  1.00  0.00    -0.266 C 
BRANCH  27  28
ATOM     28  C05 MOL     1       0.548   5.974 -17.797  1.00  0.00     0.870 C 
ATOM     29  O06 MOL     1       0.622   6.942 -17.066  1.00  0.00    -0.820 OA
ATOM     30  O07 MOL     1       0.564   4.815 -17.261  1.00  0.00    -0.676 OA
ENDBRANCH  27  28
ENDBRANCH   2  27
TORSDOF 9
ENDMDL
MODEL 5
REMARK VINA RESULT:      -5.6     13.473     16.544
REMARK  9 active torsions:
REMARK  status: ('A' for Active; 'I' for Inactive)
REMARK    1  A    between atoms: C01_2  and  C02_3 
REMARK    2  A    between atoms: C03_4  and  C04_5 
REMARK    3  A    between atoms: C04_5  and  C05_6 
REMARK    4  A    between atoms: C09_10  and  C0A_11 
REMARK    5  A    between atoms: C0A_11  and  C0B_12 
REMARK       I    between atoms: C0B_12  and  N0C_13 
REMARK    6  A    between atoms: C0E_15  and  C0F_16 
REMARK    7  A    between atoms: C0F_16  and  C0G_17 
REMARK    8  A    between atoms: C0N_23  and  C0O_24 
REMARK    9  A    between atoms: C0O_24  and  N0P_25 
ROOT
ATOM      1  C02 MOL     1      -4.273   7.417 -20.422  1.00  0.00    -0.044 C 
ATOM      2  C03 MOL     1      -3.818   6.271 -19.756  1.00  0.00     0.129 C 
ATOM      3  C08 MOL     1      -2.412   6.031 -19.483  1.00  0.00    -0.316 C 
ATOM      4  C09 MOL     1      -1.511   7.039 -19.771  1.00  0.00     0.109 C 
ATOM      5  C0E MOL     1      -1.874   8.148 -20.480  1.00  0.00    -0.064 C 
ATOM      6  C0N MOL     1      -3.249   8.390 -20.713  1.00  0.00    -0.120 C 
ENDROOT
BRANCH   5   7
ATOM      7  C0F MOL     1      -0.805   9.160 -20.861  1.00  0.00     0.047 C 
BRANCH   7   8
ATOM      8  C0G MOL     1      -0.252   9.169 -22.261  1.00  0.00     0.171 C 
ATOM      9  C0M MOL     1       0.105  10.372 -22.903  1.00  0.00    -0.195 C 
ATOM     10  C0K MOL     1       0.609  10.370 -24.230  1.00  0.00    -0.062 C 
ATOM     11  C0J MOL     1       0.605   9.214 -25.016  1.00  0.00    -0.135 C 
ATOM     12  C0I MOL     1       0.204   8.018 -24.348  1.00  0.00    -0.071 C 
ATOM     13  C0H MOL     1      -0.152   8.043 -23.016  1.00  0.00    -0.152 C 
ENDBRANCH   7   8
ENDBRANCH   5   7
BRANCH   6  14
ATOM     14  C0O MOL     1      -3.725   9.684 -21.450  1.00  0.00     0.092 C 
BRANCH  14  15
ATOM     15  N0P MOL     1      -3.745   9.635 -22.947  1.00  0.00    -0.153 N 
ATOM     16  H0Q MOL     1      -3.563   8.700 -23.273  1.00  0.00     0.257 HD
ATOM     17  H0R MOL     1      -4.700   9.808 -23.246  1.00  0.00     0.244 HD
ATOM     18  H0S MOL     1      -3.082  10.245 -23.405  1.00  0.00     0.246 HD
ENDBRANCH  14  15
ENDBRANCH   6  14
BRANCH   4  19
ATOM     19  C0A MOL     1      -0.090   6.857 -19.190  1.00  0.00    -0.219 C 
BRANCH  19  20
ATOM     20  C0B MOL     1       0.101   7.374 -17.727  1.00  0.00     0.819 C 
ATOM     21  N0C MOL     1      -0.067   6.515 -16.769  1.00  0.00    -0.993 N 
ATOM     22  H13 MOL     1      -0.263   5.559 -17.056  1.00  0.00     0.395 HD
ATOM     23  H14 MOL     1      -0.040   6.809 -15.810  1.00  0.00     0.440 HD
ATOM     24  O0D MOL     1       0.476   8.513 -17.515  1.00  0.00    -0.614 OA
ENDBRANCH  19  20
ENDBRANCH   4  19
BRANCH   1  25
ATOM     25  C01 MOL     1      -5.758   7.665 -20.766  1.00  0.00    -0.066 C 
ATOM     26  C00 MOL     1      -6.173   6.999 -22.166  1.00  0.00    -0.126 C 
ENDBRANCH   1  25
BRANCH   2  27
ATOM     27  C04 MOL     1      -4.690   5.106 -19.345  1.00  0.00    -0.266 C 
BRANCH  27  28
ATOM     28  C05 MOL     1      -5.169   5.133 -17.915  1.00  0.00     0.870 C 
ATOM     29  O06 MOL     1      -5.927   5.968 -17.463  1.00  0.00    -0.820 OA
ATOM     30  O07 MOL     1      -4.816   4.169 -17.154  1.00  0.00    -0.676 OA
ENDBRANCH  27  28
ENDBRANCH   2  27
TORSDOF 9
ENDMDL
MODEL 6
REMARK VINA RESULT:      -5.6      3.185      7.018
REMARK  9 active torsions:
REMARK  status: ('A' for Active; 'I' for Inactive)
REMARK    1  A    between atoms: C01_2  and  C02_3 
REMARK    2  A    between atoms: C03_4  and  C04_5 
REMARK    3  A    between atoms: C04_5  and  C05_6 
REMARK    4  A    between atoms: C09_10  and  C0A_11 
REMARK    5  A    between atoms: C0A_11  and  C0B_12 
REMARK       I    between atoms: C0B_12  and  N0C_13 
REMARK    6  A    between atoms: C0E_15  and  C0F_16 
REMARK    7  A    between atoms: C0F_16  and  C0G_17 
REMARK    8  A    between atoms: C0N_23  and  C0O_24 
REMARK    9  A    between atoms: C0O_24  and  N0P_25 
ROOT
ATOM      1  C02 MOL     1      -0.528   8.875  -2.795  1.00  0.00    -0.044 C 
ATOM      2  C03 MOL     1       0.731   9.157  -2.248  1.00  0.00     0.129 C 
ATOM      3  C08 MOL     1       1.840   8.220  -2.313  1.00  0.00    -0.316 C 
ATOM      4  C09 MOL     1       1.679   7.071  -3.063  1.00  0.00     0.109 C 
ATOM      5  C0E MOL     1       0.464   6.702  -3.563  1.00  0.00    -0.064 C 
ATOM      6  C0N MOL     1      -0.602   7.633  -3.525  1.00  0.00    -0.120 C 
ENDROOT
BRANCH   5   7
ATOM      7  C0F MOL     1       0.337   5.366  -4.279  1.00  0.00     0.047 C 
BRANCH   7   8
ATOM      8  C0G MOL     1       0.827   5.230  -5.695  1.00  0.00     0.171 C 
ATOM      9  C0M MOL     1       1.094   6.361  -6.493  1.00  0.00    -0.195 C 
ATOM     10  C0K MOL     1       1.538   6.219  -7.833  1.00  0.00    -0.062 C 
ATOM     11  C0J MOL     1       1.559   4.977  -8.474  1.00  0.00    -0.135 C 
ATOM     12  C0I MOL     1       1.249   3.855  -7.649  1.00  0.00    -0.071 C 
ATOM     13  C0H MOL     1       0.950   4.026  -6.314  1.00  0.00    -0.152 C 
ENDBRANCH   7   8
ENDBRANCH   5   7
BRANCH   6  14
ATOM     14  C0O MOL     1      -1.993   7.292  -4.154  1.00  0.00     0.092 C 
BRANCH  14  15
ATOM     15  N0P MOL     1      -2.213   7.727  -5.571  1.00  0.00    -0.153 N 
ATOM     16  H0Q MOL     1      -1.656   8.538  -5.782  1.00  0.00     0.257 HD
ATOM     17  H0R MOL     1      -1.824   7.008  -6.174  1.00  0.00     0.244 HD
ATOM     18  H0S MOL     1      -3.170   7.950  -5.806  1.00  0.00     0.246 HD
ENDBRANCH  14  15
ENDBRANCH   6  14
BRANCH   4  19
ATOM     19  C0A MOL     1       2.969   6.267  -3.346  1.00  0.00    -0.219 C 
BRANCH  19  20
ATOM     20  C0B MOL     1       4.180   7.113  -3.857  1.00  0.00     0.819 C 
ATOM     21  N0C MOL     1       4.112   7.573  -5.069  1.00  0.00    -0.993 N 
ATOM     22  H13 MOL     1       3.249   7.382  -5.572  1.00  0.00     0.395 HD
ATOM     23  H14 MOL     1       4.894   8.050  -5.478  1.00  0.00     0.440 HD
ATOM     24  O0D MOL     1       5.100   7.395  -3.111  1.00  0.00    -0.614 OA
ENDBRANCH  19  20
ENDBRANCH   4  19
BRANCH   1  25
ATOM     25  C01 MOL     1      -1.732   9.836  -2.692  1.00  0.00    -0.066 C 
ATOM     26  C00 MOL     1      -1.677  10.994  -3.801  1.00  0.00    -0.126 C 
ENDBRANCH   1  25
BRANCH   2  27
ATOM     27  C04 MOL     1       1.067  10.388  -1.438  1.00  0.00    -0.266 C 
BRANCH  27  28
ATOM     28  C05 MOL     1       1.034  10.204   0.059  1.00  0.00     0.870 C 
ATOM     29  O06 MOL     1       1.954  10.480   0.804  1.00  0.00    -0.820 OA
ATOM     30  O07 MOL     1      -0.061   9.803   0.582  1.00  0.00    -0.676 OA
ENDBRANCH  27  28
ENDBRANCH   2  27
TORSDOF 9
ENDMDL
MODEL 7
REMARK VINA RESULT:      -5.6      4.550      7.279
REMARK  9 active torsions:
REMARK  status: ('A' for Active; 'I' for Inactive)
REMARK    1  A    between atoms: C01_2  and  C02_3 
REMARK    2  A    between atoms: C03_4  and  C04_5 
REMARK    3  A    between atoms: C04_5  and  C05_6 
REMARK    4  A    between atoms: C09_10  and  C0A_11 
REMARK    5  A    between atoms: C0A_11  and  C0B_12 
REMARK       I    between atoms: C0B_12  and  N0C_13 
REMARK    6  A    between atoms: C0E_15  and  C0F_16 
REMARK    7  A    between atoms: C0F_16  and  C0G_17 
REMARK    8  A    between atoms: C0N_23  and  C0O_24 
REMARK    9  A    between atoms: C0O_24  and  N0P_25 
ROOT
ATOM      1  C02 MOL     1       1.470  10.660  -2.010  1.00  0.00    -0.044 C 
ATOM      2  C03 MOL     1       0.263  11.351  -1.830  1.00  0.00     0.129 C 
ATOM      3  C08 MOL     1      -0.031  12.112  -0.629  1.00  0.00    -0.316 C 
ATOM      4  C09 MOL     1       0.976  12.270   0.305  1.00  0.00     0.109 C 
ATOM      5  C0E MOL     1       2.145  11.571   0.228  1.00  0.00    -0.064 C 
ATOM      6  C0N MOL     1       2.438  10.858  -0.959  1.00  0.00    -0.120 C 
ENDROOT
BRANCH   5   7
ATOM      7  C0F MOL     1       3.159  11.706   1.354  1.00  0.00     0.047 C 
BRANCH   7   8
ATOM      8  C0G MOL     1       2.962  10.935   2.631  1.00  0.00     0.171 C 
ATOM      9  C0M MOL     1       2.489   9.607   2.623  1.00  0.00    -0.195 C 
ATOM     10  C0K MOL     1       2.291   8.896   3.835  1.00  0.00    -0.062 C 
ATOM     11  C0J MOL     1       2.379   9.525   5.080  1.00  0.00    -0.135 C 
ATOM     12  C0I MOL     1       2.826  10.881   5.053  1.00  0.00    -0.071 C 
ATOM     13  C0H MOL     1       3.136  11.494   3.858  1.00  0.00    -0.152 C 
ENDBRANCH   7   8
ENDBRANCH   5   7
BRANCH   6  14
ATOM     14  C0O MOL     1       3.798  10.106  -1.133  1.00  0.00     0.092 C 
BRANCH  14  15
ATOM     15  N0P MOL     1       3.882   8.729  -0.550  1.00  0.00    -0.153 N 
ATOM     16  H0Q MOL     1       4.598   8.192  -1.012  1.00  0.00     0.257 HD
ATOM     17  H0R MOL     1       4.231   8.821   0.400  1.00  0.00     0.244 HD
ATOM     18  H0S MOL     1       3.029   8.191  -0.595  1.00  0.00     0.246 HD
ENDBRANCH  14  15
ENDBRANCH   6  14
BRANCH   4  19
ATOM     19  C0A MOL     1       0.714  13.326   1.404  1.00  0.00    -0.219 C 
BRANCH  19  20
ATOM     20  C0B MOL     1      -0.258  12.873   2.542  1.00  0.00     0.819 C 
ATOM     21  N0C MOL     1      -0.981  13.792   3.104  1.00  0.00    -0.993 N 
ATOM     22  H13 MOL     1      -0.888  14.730   2.721  1.00  0.00     0.395 HD
ATOM     23  H14 MOL     1      -1.560  13.573   3.894  1.00  0.00     0.440 HD
ATOM     24  O0D MOL     1      -0.384  11.693   2.817  1.00  0.00    -0.614 OA
ENDBRANCH  19  20
ENDBRANCH   4  19
BRANCH   1  25
ATOM     25  C01 MOL     1       1.779   9.803  -3.257  1.00  0.00    -0.066 C 
ATOM     26  C00 MOL     1       1.303   8.282  -3.078  1.00  0.00    -0.126 C 
ENDBRANCH   1  25
BRANCH   2  27
ATOM     27  C04 MOL     1      -0.910  11.305  -2.783  1.00  0.00    -0.266 C 
BRANCH  27  28
ATOM     28  C05 MOL     1      -1.829  10.121  -2.616  1.00  0.00     0.870 C 
ATOM     29  O06 MOL     1      -1.872   9.421  -1.623  1.00  0.00    -0.820 OA
ATOM     30  O07 MOL     1      -2.670   9.889  -3.550  1.00  0.00    -0.676 OA
ENDBRANCH  27  28
ENDBRANCH   2  27
TORSDOF 9
ENDMDL
MODEL 8
REMARK VINA RESULT:      -5.6      2.963      6.604
REMARK  9 active torsions:
REMARK  status: ('A' for Active; 'I' for Inactive)
REMARK    1  A    between atoms: C01_2  and  C02_3 
REMARK    2  A    between atoms: C03_4  and  C04_5 
REMARK    3  A    between atoms: C04_5  and  C05_6 
REMARK    4  A    between atoms: C09_10  and  C0A_11 
REMARK    5  A    between atoms: C0A_11  and  C0B_12 
REMARK       I    between atoms: C0B_12  and  N0C_13 
REMARK    6  A    between atoms: C0E_15  and  C0F_16 
REMARK    7  A    between atoms: C0F_16  and  C0G_17 
REMARK    8  A    between atoms: C0N_23  and  C0O_24 
REMARK    9  A    between atoms: C0O_24  and  N0P_25 
ROOT
ATOM      1  C02 MOL     1      -0.519   6.121  -4.165  1.00  0.00    -0.044 C 
ATOM      2  C03 MOL     1      -0.328   7.500  -4.322  1.00  0.00     0.129 C 
ATOM      3  C08 MOL     1       0.577   8.056  -5.313  1.00  0.00    -0.316 C 
ATOM      4  C09 MOL     1       1.161   7.192  -6.220  1.00  0.00     0.109 C 
ATOM      5  C0E MOL     1       1.074   5.837  -6.082  1.00  0.00    -0.064 C 
ATOM      6  C0N MOL     1       0.165   5.304  -5.137  1.00  0.00    -0.120 C 
ENDROOT
BRANCH   5   7
ATOM      7  C0F MOL     1       1.838   4.948  -7.050  1.00  0.00     0.047 C 
BRANCH   7   8
ATOM      8  C0G MOL     1       3.206   4.444  -6.678  1.00  0.00     0.171 C 
ATOM      9  C0M MOL     1       3.802   3.362  -7.359  1.00  0.00    -0.195 C 
ATOM     10  C0K MOL     1       5.085   2.884  -6.987  1.00  0.00    -0.062 C 
ATOM     11  C0J MOL     1       5.732   3.334  -5.832  1.00  0.00    -0.135 C 
ATOM     12  C0I MOL     1       5.086   4.406  -5.145  1.00  0.00    -0.071 C 
ATOM     13  C0H MOL     1       3.902   4.931  -5.617  1.00  0.00    -0.152 C 
ENDBRANCH   7   8
ENDBRANCH   5   7
BRANCH   6  14
ATOM     14  C0O MOL     1      -0.034   3.760  -4.993  1.00  0.00     0.092 C 
BRANCH  14  15
ATOM     15  N0P MOL     1      -0.952   3.106  -5.980  1.00  0.00    -0.153 N 
ATOM     16  H0Q MOL     1      -1.142   3.726  -6.750  1.00  0.00     0.257 HD
ATOM     17  H0R MOL     1      -0.441   2.342  -6.411  1.00  0.00     0.244 HD
ATOM     18  H0S MOL     1      -1.843   2.810  -5.606  1.00  0.00     0.246 HD
ENDBRANCH  14  15
ENDBRANCH   6  14
BRANCH   4  19
ATOM     19  C0A MOL     1       1.865   7.857  -7.425  1.00  0.00    -0.219 C 
BRANCH  19  20
ATOM     20  C0B MOL     1       2.150   9.387  -7.266  1.00  0.00     0.819 C 
ATOM     21  N0C MOL     1       1.321  10.206  -7.836  1.00  0.00    -0.993 N 
ATOM     22  H13 MOL     1       0.522   9.781  -8.301  1.00  0.00     0.395 HD
ATOM     23  H14 MOL     1       1.499  11.193  -7.838  1.00  0.00     0.440 HD
ATOM     24  O0D MOL     1       3.064   9.778  -6.563  1.00  0.00    -0.614 OA
ENDBRANCH  19  20
ENDBRANCH   4  19
BRANCH   1  25
ATOM     25  C01 MOL     1      -1.438   5.510  -3.084  1.00  0.00    -0.066 C 
ATOM     26  C00 MOL     1      -2.979   5.517  -3.528  1.00  0.00    -0.126 C 
ENDBRANCH   1  25
BRANCH   2  27
ATOM     27  C04 MOL     1      -0.930   8.565  -3.433  1.00  0.00    -0.266 C 
BRANCH  27  28
ATOM     28  C05 MOL     1      -2.046   9.367  -4.053  1.00  0.00     0.870 C 
ATOM     29  O06 MOL     1      -3.052   8.882  -4.533  1.00  0.00    -0.820 OA
ATOM     30  O07 MOL     1      -1.962  10.640  -3.997  1.00  0.00    -0.676 OA
ENDBRANCH  27  28
ENDBRANCH   2  27
TORSDOF 9
ENDMDL
MODEL 9
REMARK VINA RESULT:      -5.6     15.640     18.089
REMARK  9 active torsions:
REMARK  status: ('A' for Active; 'I' for Inactive)
REMARK    1  A    between atoms: C01_2  and  C02_3 
REMARK    2  A    between atoms: C03_4  and  C04_5 
REMARK    3  A    between atoms: C04_5  and  C05_6 
REMARK    4  A    between atoms: C09_10  and  C0A_11 
REMARK    5  A    between atoms: C0A_11  and  C0B_12 
REMARK       I    between atoms: C0B_12  and  N0C_13 
REMARK    6  A    between atoms: C0E_15  and  C0F_16 
REMARK    7  A    between atoms: C0F_16  and  C0G_17 
REMARK    8  A    between atoms: C0N_23  and  C0O_24 
REMARK    9  A    between atoms: C0O_24  and  N0P_25 
ROOT
ATOM      1  C02 MOL     1      -5.210   8.829 -23.846  1.00  0.00    -0.044 C 
ATOM      2  C03 MOL     1      -6.130   7.906 -23.330  1.00  0.00     0.129 C 
ATOM      3  C08 MOL     1      -6.018   7.355 -21.991  1.00  0.00    -0.316 C 
ATOM      4  C09 MOL     1      -5.046   7.869 -21.153  1.00  0.00     0.109 C 
ATOM      5  C0E MOL     1      -4.077   8.714 -21.610  1.00  0.00    -0.064 C 
ATOM      6  C0N MOL     1      -4.211   9.272 -22.904  1.00  0.00    -0.120 C 
ENDROOT
BRANCH   5   7
ATOM      7  C0F MOL     1      -2.970   9.147 -20.661  1.00  0.00     0.047 C 
BRANCH   7   8
ATOM      8  C0G MOL     1      -1.700   8.344 -20.581  1.00  0.00     0.171 C 
ATOM      9  C0M MOL     1      -1.567   7.109 -21.248  1.00  0.00    -0.195 C 
ATOM     10  C0K MOL     1      -0.370   6.353 -21.151  1.00  0.00    -0.062 C 
ATOM     11  C0J MOL     1       0.649   6.700 -20.260  1.00  0.00    -0.135 C 
ATOM     12  C0I MOL     1       0.469   7.937 -19.572  1.00  0.00    -0.071 C 
ATOM     13  C0H MOL     1      -0.652   8.709 -19.796  1.00  0.00    -0.152 C 
ENDBRANCH   7   8
ENDBRANCH   5   7
BRANCH   6  14
ATOM     14  C0O MOL     1      -3.172  10.307 -23.447  1.00  0.00     0.092 C 
BRANCH  14  15
ATOM     15  N0P MOL     1      -3.476  11.754 -23.203  1.00  0.00    -0.153 N 
ATOM     16  H0Q MOL     1      -2.684  12.216 -22.787  1.00  0.00     0.257 HD
ATOM     17  H0R MOL     1      -3.563  12.204 -24.110  1.00  0.00     0.244 HD
ATOM     18  H0S MOL     1      -4.272  11.930 -22.607  1.00  0.00     0.246 HD
ENDBRANCH  14  15
ENDBRANCH   6  14
BRANCH   4  19
ATOM     19  C0A MOL     1      -5.162   7.471 -19.664  1.00  0.00    -0.219 C 
BRANCH  19  20
ATOM     20  C0B MOL     1      -6.018   8.439 -18.783  1.00  0.00     0.819 C 
ATOM     21  N0C MOL     1      -6.898   7.901 -17.996  1.00  0.00    -0.993 N 
ATOM     22  H13 MOL     1      -6.923   6.885 -17.983  1.00  0.00     0.395 HD
ATOM     23  H14 MOL     1      -7.531   8.476 -17.471  1.00  0.00     0.440 HD
ATOM     24  O0D MOL     1      -5.797   9.637 -18.783  1.00  0.00    -0.614 OA
ENDBRANCH  19  20
ENDBRANCH   4  19
BRANCH   1  25
ATOM     25  C01 MOL     1      -5.283   9.387 -25.284  1.00  0.00    -0.066 C 
ATOM     26  C00 MOL     1      -4.599   8.401 -26.349  1.00  0.00    -0.126 C 
ENDBRANCH   1  25
BRANCH   2  27
ATOM     27  C04 MOL     1      -7.266   7.288 -24.112  1.00  0.00    -0.266 C 
BRANCH  27  28
ATOM     28  C05 MOL     1      -8.286   8.261 -24.647  1.00  0.00     0.870 C 
ATOM     29  O06 MOL     1      -8.632   8.322 -25.811  1.00  0.00    -0.820 OA
ATOM     30  O07 MOL     1      -8.880   9.017 -23.805  1.00  0.00    -0.676 OA
ENDBRANCH  27  28
ENDBRANCH   2  27
TORSDOF 9
ENDMDL
MODEL 10
REMARK VINA RESULT:      -5.5      9.029     12.208
REMARK  9 active torsions:
REMARK  status: ('A' for Active; 'I' for Inactive)
REMARK    1  A    between atoms: C01_2  and  C02_3 
REMARK    2  A    between atoms: C03_4  and  C04_5 
REMARK    3  A    between atoms: C04_5  and  C05_6 
REMARK    4  A    between atoms: C09_10  and  C0A_11 
REMARK    5  A    between atoms: C0A_11  and  C0B_12 
REMARK       I    between atoms: C0B_12  and  N0C_13 
REMARK    6  A    between atoms: C0E_15  and  C0F_16 
REMARK    7  A    between atoms: C0F_16  and  C0G_17 
REMARK    8  A    between atoms: C0N_23  and  C0O_24 
REMARK    9  A    between atoms: C0O_24  and  N0P_25 
ROOT
ATOM      1  C02 MOL     1      -2.412  12.601   5.750  1.00  0.00    -0.044 C 
ATOM      2  C03 MOL     1      -2.472  13.542   4.712  1.00  0.00     0.129 C 
ATOM      3  C08 MOL     1      -1.621  13.465   3.537  1.00  0.00    -0.316 C 
ATOM      4  C09 MOL     1      -0.826  12.345   3.380  1.00  0.00     0.109 C 
ATOM      5  C0E MOL     1      -0.668  11.429   4.379  1.00  0.00    -0.064 C 
ATOM      6  C0N MOL     1      -1.523  11.492   5.505  1.00  0.00    -0.120 C 
ENDROOT
BRANCH   5   7
ATOM      7  C0F MOL     1       0.313  10.284   4.180  1.00  0.00     0.047 C 
BRANCH   7   8
ATOM      8  C0G MOL     1       1.649  10.319   4.871  1.00  0.00     0.171 C 
ATOM      9  C0M MOL     1       2.327   9.133   5.221  1.00  0.00    -0.195 C 
ATOM     10  C0K MOL     1       3.579   9.179   5.889  1.00  0.00    -0.062 C 
ATOM     11  C0J MOL     1       4.106  10.375   6.384  1.00  0.00    -0.135 C 
ATOM     12  C0I MOL     1       3.378  11.554   6.043  1.00  0.00    -0.071 C 
ATOM     13  C0H MOL     1       2.234  11.477   5.278  1.00  0.00    -0.152 C 
ENDBRANCH   7   8
ENDBRANCH   5   7
BRANCH   6  14
ATOM     14  C0O MOL     1      -1.439  10.421   6.642  1.00  0.00     0.092 C 
BRANCH  14  15
ATOM     15  N0P MOL     1      -0.426  10.663   7.719  1.00  0.00    -0.153 N 
ATOM     16  H0Q MOL     1      -0.661  11.488   8.246  1.00  0.00     0.257 HD
ATOM     17  H0R MOL     1      -0.519   9.914   8.398  1.00  0.00     0.244 HD
ATOM     18  H0S MOL     1       0.525  10.774   7.396  1.00  0.00     0.246 HD
ENDBRANCH  14  15
ENDBRANCH   6  14
BRANCH   4  19
ATOM     19  C0A MOL     1      -0.178  12.170   1.987  1.00  0.00    -0.219 C 
BRANCH  19  20
ATOM     20  C0B MOL     1       0.389  13.480   1.350  1.00  0.00     0.819 C 
ATOM     21  N0C MOL     1       1.501  13.941   1.835  1.00  0.00    -0.993 N 
ATOM     22  H13 MOL     1       1.937  13.380   2.563  1.00  0.00     0.395 HD
ATOM     23  H14 MOL     1       1.867  14.822   1.523  1.00  0.00     0.440 HD
ATOM     24  O0D MOL     1      -0.153  13.986   0.384  1.00  0.00    -0.614 OA
ENDBRANCH  19  20
ENDBRANCH   4  19
BRANCH   1  25
ATOM     25  C01 MOL     1      -3.271  12.695   7.029  1.00  0.00    -0.066 C 
ATOM     26  C00 MOL     1      -4.566  11.751   6.957  1.00  0.00    -0.126 C 
ENDBRANCH   1  25
BRANCH   2  27
ATOM     27  C04 MOL     1      -3.320  14.792   4.725  1.00  0.00    -0.266 C 
BRANCH  27  28
ATOM     28  C05 MOL     1      -4.778  14.586   4.399  1.00  0.00     0.870 C 
ATOM     29  O06 MOL     1      -5.667  14.546   5.228  1.00  0.00    -0.820 OA
ATOM     30  O07 MOL     1      -5.106  14.526   3.166  1.00  0.00    -0.676 OA
ENDBRANCH  27  28
ENDBRANCH   2  27
TORSDOF 9
ENDMDL
MODEL 11
REMARK VINA RESULT:      -5.5      2.936      4.134
REMARK  9 active torsions:
REMARK  status: ('A' for Active; 'I' for Inactive)
REMARK    1  A    between atoms: C01_2  and  C02_3 
REMARK    2  A    between atoms: C03_4  and  C04_5 
REMARK    3  A    between atoms: C04_5  and  C05_6 
REMARK    4  A    between atoms: C09_10  and  C0A_11 
REMARK    5  A    between atoms: C0A_11  and  C0B_12 
REMARK       I    between atoms: C0B_12  and  N0C_13 
REMARK    6  A    between atoms: C0E_15  and  C0F_16 
REMARK    7  A    between atoms: C0F_16  and  C0G_17 
REMARK    8  A    between atoms: C0N_23  and  C0O_24 
REMARK    9  A    between atoms: C0O_24  and  N0P_25 
ROOT
ATOM      1  C02 MOL     1       1.375   6.675  -3.257  1.00  0.00    -0.044 C 
ATOM      2  C03 MOL     1       0.031   7.074  -3.227  1.00  0.00     0.129 C 
ATOM      3  C08 MOL     1      -0.381   8.403  -2.811  1.00  0.00    -0.316 C 
ATOM      4  C09 MOL     1       0.602   9.345  -2.571  1.00  0.00     0.109 C 
ATOM      5  C0E MOL     1       1.923   9.008  -2.514  1.00  0.00    -0.064 C 
ATOM      6  C0N MOL     1       2.320   7.722  -2.952  1.00  0.00    -0.120 C 
ENDROOT
BRANCH   5   7
ATOM      7  C0F MOL     1       2.938  10.073  -2.129  1.00  0.00     0.047 C 
BRANCH   7   8
ATOM      8  C0G MOL     1       3.550  10.940  -3.196  1.00  0.00     0.171 C 
ATOM      9  C0M MOL     1       4.373  12.037  -2.869  1.00  0.00    -0.195 C 
ATOM     10  C0K MOL     1       4.930  12.859  -3.884  1.00  0.00    -0.062 C 
ATOM     11  C0J MOL     1       4.550  12.734  -5.223  1.00  0.00    -0.135 C 
ATOM     12  C0I MOL     1       3.687  11.635  -5.517  1.00  0.00    -0.071 C 
ATOM     13  C0H MOL     1       3.274  10.780  -4.517  1.00  0.00    -0.152 C 
ENDBRANCH   7   8
ENDBRANCH   5   7
BRANCH   6  14
ATOM     14  C0O MOL     1       3.828   7.310  -2.984  1.00  0.00     0.092 C 
BRANCH  14  15
ATOM     15  N0P MOL     1       4.439   6.899  -1.680  1.00  0.00    -0.153 N 
ATOM     16  H0Q MOL     1       5.220   7.492  -1.453  1.00  0.00     0.257 HD
ATOM     17  H0R MOL     1       3.765   7.104  -0.949  1.00  0.00     0.244 HD
ATOM     18  H0S MOL     1       4.768   5.944  -1.643  1.00  0.00     0.246 HD
ENDBRANCH  14  15
ENDBRANCH   6  14
BRANCH   4  19
ATOM     19  C0A MOL     1       0.114  10.805  -2.429  1.00  0.00    -0.219 C 
BRANCH  19  20
ATOM     20  C0B MOL     1      -0.740  11.338  -3.625  1.00  0.00     0.819 C 
ATOM     21  N0C MOL     1      -1.922  11.798  -3.351  1.00  0.00    -0.993 N 
ATOM     22  H13 MOL     1      -2.177  11.816  -2.366  1.00  0.00     0.395 HD
ATOM     23  H14 MOL     1      -2.545  12.075  -4.087  1.00  0.00     0.440 HD
ATOM     24  O0D MOL     1      -0.270  11.395  -4.747  1.00  0.00    -0.614 OA
ENDBRANCH  19  20
ENDBRANCH   4  19
BRANCH   1  25
ATOM     25  C01 MOL     1       1.829   5.251  -3.647  1.00  0.00    -0.066 C 
ATOM     26  C00 MOL     1       1.923   5.063  -5.237  1.00  0.00    -0.126 C 
ENDBRANCH   1  25
BRANCH   2  27
ATOM     27  C04 MOL     1      -1.147   6.167  -3.503  1.00  0.00    -0.266 C 
BRANCH  27  28
ATOM     28  C05 MOL     1      -2.319   6.825  -4.186  1.00  0.00     0.870 C 
ATOM     29  O06 MOL     1      -2.226   7.566  -5.145  1.00  0.00    -0.820 OA
ATOM     30  O07 MOL     1      -3.490   6.519  -3.777  1.00  0.00    -0.676 OA
ENDBRANCH  27  28
ENDBRANCH   2  27
TORSDOF 9
ENDMDL
MODEL 12
REMARK VINA RESULT:      -5.5     20.517     22.834
REMARK  9 active torsions:
REMARK  status: ('A' for Active; 'I' for Inactive)
REMARK    1  A    between atoms: C01_2  and  C02_3 
REMARK    2  A    between atoms: C03_4  and  C04_5 
REMARK    3  A    between atoms: C04_5  and  C05_6 
REMARK    4  A    between atoms: C09_10  and  C0A_11 
REMARK    5  A    between atoms: C0A_11  and  C0B_12 
REMARK       I    between atoms: C0B_12  and  N0C_13 
REMARK    6  A    between atoms: C0E_15  and  C0F_16 
REMARK    7  A    between atoms: C0F_16  and  C0G_17 
REMARK    8  A    between atoms: C0N_23  and  C0O_24 
REMARK    9  A    between atoms: C0O_24  and  N0P_25 
ROOT
ATOM      1  C02 MOL     1     -12.380   1.759  11.774  1.00  0.00    -0.044 C 
ATOM      2  C03 MOL     1     -11.329   2.324  11.039  1.00  0.00     0.129 C 
ATOM      3  C08 MOL     1      -9.959   1.851  11.142  1.00  0.00    -0.316 C 
ATOM      4  C09 MOL     1      -9.717   0.714  11.889  1.00  0.00     0.109 C 
ATOM      5  C0E MOL     1     -10.677   0.156  12.684  1.00  0.00    -0.064 C 
ATOM      6  C0N MOL     1     -12.014   0.601  12.553  1.00  0.00    -0.120 C 
ENDROOT
BRANCH   5   7
ATOM      7  C0F MOL     1     -10.307  -1.024  13.568  1.00  0.00     0.047 C 
BRANCH   7   8
ATOM      8  C0G MOL     1     -10.390  -0.889  15.064  1.00  0.00     0.171 C 
ATOM      9  C0M MOL     1     -10.291   0.368  15.696  1.00  0.00    -0.195 C 
ATOM     10  C0K MOL     1     -10.353   0.480  17.110  1.00  0.00    -0.062 C 
ATOM     11  C0J MOL     1     -10.332  -0.645  17.939  1.00  0.00    -0.135 C 
ATOM     12  C0I MOL     1     -10.397  -1.904  17.269  1.00  0.00    -0.071 C 
ATOM     13  C0H MOL     1     -10.469  -1.964  15.893  1.00  0.00    -0.152 C 
ENDBRANCH   7   8
ENDBRANCH   5   7
BRANCH   6  14
ATOM     14  C0O MOL     1     -13.167  -0.056  13.380  1.00  0.00     0.092 C 
BRANCH  14  15
ATOM     15  N0P MOL     1     -13.770  -1.306  12.815  1.00  0.00    -0.153 N 
ATOM     16  H0Q MOL     1     -13.462  -1.450  11.868  1.00  0.00     0.257 HD
ATOM     17  H0R MOL     1     -13.368  -2.092  13.318  1.00  0.00     0.244 HD
ATOM     18  H0S MOL     1     -14.780  -1.330  12.809  1.00  0.00     0.246 HD
ENDBRANCH  14  15
ENDBRANCH   6  14
BRANCH   4  19
ATOM     19  C0A MOL     1      -8.314   0.085  11.723  1.00  0.00    -0.219 C 
BRANCH  19  20
ATOM     20  C0B MOL     1      -7.359   0.845  10.746  1.00  0.00     0.819 C 
ATOM     21  N0C MOL     1      -7.416   0.522   9.490  1.00  0.00    -0.993 N 
ATOM     22  H13 MOL     1      -8.118  -0.171   9.239  1.00  0.00     0.395 HD
ATOM     23  H14 MOL     1      -6.769   0.915   8.832  1.00  0.00     0.440 HD
ATOM     24  O0D MOL     1      -6.660   1.758  11.146  1.00  0.00    -0.614 OA
ENDBRANCH  19  20
ENDBRANCH   4  19
BRANCH   1  25
ATOM     25  C01 MOL     1     -13.832   2.282  11.716  1.00  0.00    -0.066 C 
ATOM     26  C00 MOL     1     -14.623   1.725  10.436  1.00  0.00    -0.126 C 
ENDBRANCH   1  25
BRANCH   2  27
ATOM     27  C04 MOL     1     -11.450   3.542  10.151  1.00  0.00    -0.266 C 
BRANCH  27  28
ATOM     28  C05 MOL     1     -11.280   4.868  10.849  1.00  0.00     0.870 C 
ATOM     29  O06 MOL     1     -12.132   5.393  11.539  1.00  0.00    -0.820 OA
ATOM     30  O07 MOL     1     -10.137   5.435  10.773  1.00  0.00    -0.676 OA
ENDBRANCH  27  28
ENDBRANCH   2  27
TORSDOF 9
ENDMDL
MODEL 13
REMARK VINA RESULT:      -5.5      4.101      6.463
REMARK  9 active torsions:
REMARK  status: ('A' for Active; 'I' for Inactive)
REMARK    1  A    between atoms: C01_2  and  C02_3 
REMARK    2  A    between atoms: C03_4  and  C04_5 
REMARK    3  A    between atoms: C04_5  and  C05_6 
REMARK    4  A    between atoms: C09_10  and  C0A_11 
REMARK    5  A    between atoms: C0A_11  and  C0B_12 
REMARK       I    between atoms: C0B_12  and  N0C_13 
REMARK    6  A    between atoms: C0E_15  and  C0F_16 
REMARK    7  A    between atoms: C0F_16  and  C0G_17 
REMARK    8  A    between atoms: C0N_23  and  C0O_24 
REMARK    9  A    between atoms: C0O_24  and  N0P_25 
ROOT
ATOM      1  C02 MOL     1       1.166  10.631  -3.375  1.00  0.00    -0.044 C 
ATOM      2  C03 MOL     1       0.082  11.207  -2.698  1.00  0.00     0.129 C 
ATOM      3  C08 MOL     1       0.193  11.731  -1.348  1.00  0.00    -0.316 C 
ATOM      4  C09 MOL     1       1.447  11.784  -0.770  1.00  0.00     0.109 C 
ATOM      5  C0E MOL     1       2.529  11.181  -1.342  1.00  0.00    -0.064 C 
ATOM      6  C0N MOL     1       2.422  10.703  -2.670  1.00  0.00    -0.120 C 
ENDROOT
BRANCH   5   7
ATOM      7  C0F MOL     1       3.853  11.179  -0.593  1.00  0.00     0.047 C 
BRANCH   7   8
ATOM      8  C0G MOL     1       4.218  10.005   0.273  1.00  0.00     0.171 C 
ATOM      9  C0M MOL     1       3.922   9.987   1.652  1.00  0.00    -0.195 C 
ATOM     10  C0K MOL     1       4.287   8.881   2.463  1.00  0.00    -0.062 C 
ATOM     11  C0J MOL     1       5.103   7.854   1.981  1.00  0.00    -0.135 C 
ATOM     12  C0I MOL     1       5.415   7.918   0.590  1.00  0.00    -0.071 C 
ATOM     13  C0H MOL     1       4.928   8.944  -0.193  1.00  0.00    -0.152 C 
ENDBRANCH   7   8
ENDBRANCH   5   7
BRANCH   6  14
ATOM     14  C0O MOL     1       3.653  10.075  -3.403  1.00  0.00     0.092 C 
BRANCH  14  15
ATOM     15  N0P MOL     1       4.518  11.013  -4.187  1.00  0.00    -0.153 N 
ATOM     16  H0Q MOL     1       4.048  11.308  -5.027  1.00  0.00     0.257 HD
ATOM     17  H0R MOL     1       4.604  11.870  -3.649  1.00  0.00     0.244 HD
ATOM     18  H0S MOL     1       5.415  10.639  -4.463  1.00  0.00     0.246 HD
ENDBRANCH  14  15
ENDBRANCH   6  14
BRANCH   4  19
ATOM     19  C0A MOL     1       1.555  12.617   0.528  1.00  0.00    -0.219 C 
BRANCH  19  20
ATOM     20  C0B MOL     1       0.293  13.472   0.875  1.00  0.00     0.819 C 
ATOM     21  N0C MOL     1      -0.114  13.455   2.107  1.00  0.00    -0.993 N 
ATOM     22  H13 MOL     1       0.456  12.920   2.758  1.00  0.00     0.395 HD
ATOM     23  H14 MOL     1      -0.965  13.917   2.370  1.00  0.00     0.440 HD
ATOM     24  O0D MOL     1      -0.224  14.186   0.035  1.00  0.00    -0.614 OA
ENDBRANCH  19  20
ENDBRANCH   4  19
BRANCH   1  25
ATOM     25  C01 MOL     1       1.055  10.024  -4.791  1.00  0.00    -0.066 C 
ATOM     26  C00 MOL     1       1.169  11.140  -5.937  1.00  0.00    -0.126 C 
ENDBRANCH   1  25
BRANCH   2  27
ATOM     27  C04 MOL     1      -1.337  11.257  -3.219  1.00  0.00    -0.266 C 
BRANCH  27  28
ATOM     28  C05 MOL     1      -2.116   9.973  -3.088  1.00  0.00     0.870 C 
ATOM     29  O06 MOL     1      -2.096   9.256  -2.106  1.00  0.00    -0.820 OA
ATOM     30  O07 MOL     1      -2.908   9.661  -4.041  1.00  0.00    -0.676 OA
ENDBRANCH  27  28
ENDBRANCH   2  27
TORSDOF 9
ENDMDL
MODEL 14
REMARK VINA RESULT:      -5.4     13.040     15.769
REMARK  9 active torsions:
REMARK  status: ('A' for Active; 'I' for Inactive)
REMARK    1  A    between atoms: C01_2  and  C02_3 
REMARK    2  A    between atoms: C03_4  and  C04_5 
REMARK    3  A    between atoms: C04_5  and  C05_6 
REMARK    4  A    between atoms: C09_10  and  C0A_11 
REMARK    5  A    between atoms: C0A_11  and  C0B_12 
REMARK       I    between atoms: C0B_12  and  N0C_13 
REMARK    6  A    between atoms: C0E_15  and  C0F_16 
REMARK    7  A    between atoms: C0F_16  and  C0G_17 
REMARK    8  A    between atoms: C0N_23  and  C0O_24 
REMARK    9  A    between atoms: C0O_24  and  N0P_25 
ROOT
ATOM      1  C02 MOL     1      -3.670   6.492 -19.904  1.00  0.00    -0.044 C 
ATOM      2  C03 MOL     1      -4.307   7.607 -20.464  1.00  0.00     0.129 C 
ATOM      3  C08 MOL     1      -3.598   8.833 -20.786  1.00  0.00    -0.316 C 
ATOM      4  C09 MOL     1      -2.221   8.842 -20.661  1.00  0.00     0.109 C 
ATOM      5  C0E MOL     1      -1.547   7.819 -20.059  1.00  0.00    -0.064 C 
ATOM      6  C0N MOL     1      -2.238   6.616 -19.778  1.00  0.00    -0.120 C 
ENDROOT
BRANCH   5   7
ATOM      7  C0F MOL     1      -0.046   7.949 -19.850  1.00  0.00     0.047 C 
BRANCH   7   8
ATOM      8  C0G MOL     1       0.485   8.395 -18.515  1.00  0.00     0.171 C 
ATOM      9  C0M MOL     1       0.451   9.749 -18.124  1.00  0.00    -0.195 C 
ATOM     10  C0K MOL     1       0.971  10.160 -16.869  1.00  0.00    -0.062 C 
ATOM     11  C0J MOL     1       1.693   9.287 -16.051  1.00  0.00    -0.135 C 
ATOM     12  C0I MOL     1       1.740   7.930 -16.491  1.00  0.00    -0.071 C 
ATOM     13  C0H MOL     1       1.106   7.546 -17.653  1.00  0.00    -0.152 C 
ENDBRANCH   7   8
ENDBRANCH   5   7
BRANCH   6  14
ATOM     14  C0O MOL     1      -1.497   5.385 -19.163  1.00  0.00     0.092 C 
BRANCH  14  15
ATOM     15  N0P MOL     1      -1.358   5.362 -17.671  1.00  0.00    -0.153 N 
ATOM     16  H0Q MOL     1      -0.396   5.225 -17.408  1.00  0.00     0.257 HD
ATOM     17  H0R MOL     1      -1.566   6.296 -17.331  1.00  0.00     0.244 HD
ATOM     18  H0S MOL     1      -1.901   4.652 -17.201  1.00  0.00     0.246 HD
ENDBRANCH  14  15
ENDBRANCH   6  14
BRANCH   4  19
ATOM     19  C0A MOL     1      -1.496  10.051 -21.295  1.00  0.00    -0.219 C 
BRANCH  19  20
ATOM     20  C0B MOL     1      -2.084  10.537 -22.660  1.00  0.00     0.819 C 
ATOM     21  N0C MOL     1      -2.561  11.743 -22.703  1.00  0.00    -0.993 N 
ATOM     22  H13 MOL     1      -2.468  12.291 -21.851  1.00  0.00     0.395 HD
ATOM     23  H14 MOL     1      -3.026  12.078 -23.527  1.00  0.00     0.440 HD
ATOM     24  O0D MOL     1      -2.011   9.835 -23.652  1.00  0.00    -0.614 OA
ENDBRANCH  19  20
ENDBRANCH   4  19
BRANCH   1  25
ATOM     25  C01 MOL     1      -4.417   5.199 -19.508  1.00  0.00    -0.066 C 
ATOM     26  C00 MOL     1      -4.994   5.269 -18.013  1.00  0.00    -0.126 C 
ENDBRANCH   1  25
BRANCH   2  27
ATOM     27  C04 MOL     1      -5.796   7.728 -20.697  1.00  0.00    -0.266 C 
BRANCH  27  28
ATOM     28  C05 MOL     1      -6.246   7.510 -22.119  1.00  0.00     0.870 C 
ATOM     29  O06 MOL     1      -6.162   8.344 -23.000  1.00  0.00    -0.820 OA
ATOM     30  O07 MOL     1      -6.671   6.347 -22.434  1.00  0.00    -0.676 OA
ENDBRANCH  27  28
ENDBRANCH   2  27
TORSDOF 9
ENDMDL
MODEL 15
REMARK VINA RESULT:      -5.4      2.348      6.087
REMARK  9 active torsions:
REMARK  status: ('A' for Active; 'I' for Inactive)
REMARK    1  A    between atoms: C01_2  and  C02_3 
REMARK    2  A    between atoms: C03_4  and  C04_5 
REMARK    3  A    between atoms: C04_5  and  C05_6 
REMARK    4  A    between atoms: C09_10  and  C0A_11 
REMARK    5  A    between atoms: C0A_11  and  C0B_12 
REMARK       I    between atoms: C0B_12  and  N0C_13 
REMARK    6  A    between atoms: C0E_15  and  C0F_16 
REMARK    7  A    between atoms: C0F_16  and  C0G_17 
REMARK    8  A    between atoms: C0N_23  and  C0O_24 
REMARK    9  A    between atoms: C0O_24  and  N0P_25 
ROOT
ATOM      1  C02 MOL     1       1.878   9.462  -4.263  1.00  0.00    -0.044 C 
ATOM      2  C03 MOL     1       1.369   8.985  -3.047  1.00  0.00     0.129 C 
ATOM      3  C08 MOL     1       0.626   7.742  -2.944  1.00  0.00    -0.316 C 
ATOM      4  C09 MOL     1       0.541   6.938  -4.065  1.00  0.00     0.109 C 
ATOM      5  C0E MOL     1       0.950   7.371  -5.293  1.00  0.00    -0.064 C 
ATOM      6  C0N MOL     1       1.703   8.566  -5.381  1.00  0.00    -0.120 C 
ENDROOT
BRANCH   5   7
ATOM      7  C0F MOL     1       0.719   6.478  -6.503  1.00  0.00     0.047 C 
BRANCH   7   8
ATOM      8  C0G MOL     1       1.680   5.360  -6.799  1.00  0.00     0.171 C 
ATOM      9  C0M MOL     1       2.995   5.365  -6.290  1.00  0.00    -0.195 C 
ATOM     10  C0K MOL     1       3.898   4.313  -6.591  1.00  0.00    -0.062 C 
ATOM     11  C0J MOL     1       3.594   3.330  -7.536  1.00  0.00    -0.135 C 
ATOM     12  C0I MOL     1       2.267   3.371  -8.060  1.00  0.00    -0.071 C 
ATOM     13  C0H MOL     1       1.375   4.336  -7.640  1.00  0.00    -0.152 C 
ENDBRANCH   7   8
ENDBRANCH   5   7
BRANCH   6  14
ATOM     14  C0O MOL     1       2.265   9.067  -6.751  1.00  0.00     0.092 C 
BRANCH  14  15
ATOM     15  N0P MOL     1       1.347   9.903  -7.589  1.00  0.00    -0.153 N 
ATOM     16  H0Q MOL     1       1.035  10.709  -7.073  1.00  0.00     0.257 HD
ATOM     17  H0R MOL     1       1.900  10.302  -8.341  1.00  0.00     0.244 HD
ATOM     18  H0S MOL     1       0.523   9.427  -7.927  1.00  0.00     0.246 HD
ENDBRANCH  14  15
ENDBRANCH   6  14
BRANCH   4  19
ATOM     19  C0A MOL     1       0.008   5.507  -3.828  1.00  0.00    -0.219 C 
BRANCH  19  20
ATOM     20  C0B MOL     1      -1.491   5.420  -3.392  1.00  0.00     0.819 C 
ATOM     21  N0C MOL     1      -2.352   6.093  -4.093  1.00  0.00    -0.993 N 
ATOM     22  H13 MOL     1      -1.981   6.585  -4.902  1.00  0.00     0.395 HD
ATOM     23  H14 MOL     1      -3.313   6.141  -3.810  1.00  0.00     0.440 HD
ATOM     24  O0D MOL     1      -1.833   4.681  -2.487  1.00  0.00    -0.614 OA
ENDBRANCH  19  20
ENDBRANCH   4  19
BRANCH   1  25
ATOM     25  C01 MOL     1       2.626  10.806  -4.401  1.00  0.00    -0.066 C 
ATOM     26  C00 MOL     1       4.179  10.673  -4.020  1.00  0.00    -0.126 C 
ENDBRANCH   1  25
BRANCH   2  27
ATOM     27  C04 MOL     1       1.422   9.733  -1.734  1.00  0.00    -0.266 C 
BRANCH  27  28
ATOM     28  C05 MOL     1       0.083  10.124  -1.161  1.00  0.00     0.870 C 
ATOM     29  O06 MOL     1      -0.709  10.862  -1.713  1.00  0.00    -0.820 OA
ATOM     30  O07 MOL     1      -0.271   9.580  -0.060  1.00  0.00    -0.676 OA
ENDBRANCH  27  28
ENDBRANCH   2  27
TORSDOF 9
ENDMDL
MODEL 16
REMARK VINA RESULT:      -5.4      3.899      7.237
REMARK  9 active torsions:
REMARK  status: ('A' for Active; 'I' for Inactive)
REMARK    1  A    between atoms: C01_2  and  C02_3 
REMARK    2  A    between atoms: C03_4  and  C04_5 
REMARK    3  A    between atoms: C04_5  and  C05_6 
REMARK    4  A    between atoms: C09_10  and  C0A_11 
REMARK    5  A    between atoms: C0A_11  and  C0B_12 
REMARK       I    between atoms: C0B_12  and  N0C_13 
REMARK    6  A    between atoms: C0E_15  and  C0F_16 
REMARK    7  A    between atoms: C0F_16  and  C0G_17 
REMARK    8  A    between atoms: C0N_23  and  C0O_24 
REMARK    9  A    between atoms: C0O_24  and  N0P_25 
ROOT
ATOM      1  C02 MOL     1       0.853  10.015  -3.018  1.00  0.00    -0.044 C 
ATOM      2  C03 MOL     1       1.611   9.973  -1.839  1.00  0.00     0.129 C 
ATOM      3  C08 MOL     1       2.586   8.929  -1.574  1.00  0.00    -0.316 C 
ATOM      4  C09 MOL     1       2.870   8.030  -2.584  1.00  0.00     0.109 C 
ATOM      5  C0E MOL     1       2.124   7.971  -3.726  1.00  0.00    -0.064 C 
ATOM      6  C0N MOL     1       1.199   9.009  -3.992  1.00  0.00    -0.120 C 
ENDROOT
BRANCH   5   7
ATOM      7  C0F MOL     1       2.419   6.880  -4.743  1.00  0.00     0.047 C 
BRANCH   7   8
ATOM      8  C0G MOL     1       1.425   5.770  -4.955  1.00  0.00     0.171 C 
ATOM      9  C0M MOL     1       0.701   5.215  -3.880  1.00  0.00    -0.195 C 
ATOM     10  C0K MOL     1      -0.221   4.157  -4.090  1.00  0.00    -0.062 C 
ATOM     11  C0J MOL     1      -0.321   3.502  -5.321  1.00  0.00    -0.135 C 
ATOM     12  C0I MOL     1       0.452   4.065  -6.381  1.00  0.00    -0.071 C 
ATOM     13  C0H MOL     1       1.236   5.179  -6.165  1.00  0.00    -0.152 C 
ENDBRANCH   7   8
ENDBRANCH   5   7
BRANCH   6  14
ATOM     14  C0O MOL     1       0.376   9.035  -5.321  1.00  0.00     0.092 C 
BRANCH  14  15
ATOM     15  N0P MOL     1      -0.909   8.266  -5.329  1.00  0.00    -0.153 N 
ATOM     16  H0Q MOL     1      -1.553   8.645  -4.654  1.00  0.00     0.257 HD
ATOM     17  H0R MOL     1      -1.366   8.445  -6.219  1.00  0.00     0.244 HD
ATOM     18  H0S MOL     1      -0.820   7.278  -5.135  1.00  0.00     0.246 HD
ENDBRANCH  14  15
ENDBRANCH   6  14
BRANCH   4  19
ATOM     19  C0A MOL     1       4.115   7.140  -2.363  1.00  0.00    -0.219 C 
BRANCH  19  20
ATOM     20  C0B MOL     1       5.174   7.716  -1.367  1.00  0.00     0.819 C 
ATOM     21  N0C MOL     1       5.178   7.234  -0.163  1.00  0.00    -0.993 N 
ATOM     22  H13 MOL     1       4.517   6.482   0.019  1.00  0.00     0.395 HD
ATOM     23  H14 MOL     1       5.778   7.624   0.541  1.00  0.00     0.440 HD
ATOM     24  O0D MOL     1       6.008   8.519  -1.745  1.00  0.00    -0.614 OA
ENDBRANCH  19  20
ENDBRANCH   4  19
BRANCH   1  25
ATOM     25  C01 MOL     1      -0.224  11.087  -3.295  1.00  0.00    -0.066 C 
ATOM     26  C00 MOL     1      -1.648  10.685  -2.674  1.00  0.00    -0.126 C 
ENDBRANCH   1  25
BRANCH   2  27
ATOM     27  C04 MOL     1       1.441  10.911  -0.666  1.00  0.00    -0.266 C 
BRANCH  27  28
ATOM     28  C05 MOL     1       0.955  10.267   0.609  1.00  0.00     0.870 C 
ATOM     29  O06 MOL     1       1.591  10.233   1.644  1.00  0.00    -0.820 OA
ATOM     30  O07 MOL     1      -0.233   9.798   0.619  1.00  0.00    -0.676 OA
ENDBRANCH  27  28
ENDBRANCH   2  27
TORSDOF 9
ENDMDL
MODEL 17
REMARK VINA RESULT:      -5.4      3.336      5.055
REMARK  9 active torsions:
REMARK  status: ('A' for Active; 'I' for Inactive)
REMARK    1  A    between atoms: C01_2  and  C02_3 
REMARK    2  A    between atoms: C03_4  and  C04_5 
REMARK    3  A    between atoms: C04_5  and  C05_6 
REMARK    4  A    between atoms: C09_10  and  C0A_11 
REMARK    5  A    between atoms: C0A_11  and  C0B_12 
REMARK       I    between atoms: C0B_12  and  N0C_13 
REMARK    6  A    between atoms: C0E_15  and  C0F_16 
REMARK    7  A    between atoms: C0F_16  and  C0G_17 
REMARK    8  A    between atoms: C0N_23  and  C0O_24 
REMARK    9  A    between atoms: C0O_24  and  N0P_25 
ROOT
ATOM      1  C02 MOL     1      -0.348   8.086  -3.063  1.00  0.00    -0.044 C 
ATOM      2  C03 MOL     1       0.895   7.453  -3.203  1.00  0.00     0.129 C 
ATOM      3  C08 MOL     1       2.152   8.133  -2.942  1.00  0.00    -0.316 C 
ATOM      4  C09 MOL     1       2.106   9.404  -2.403  1.00  0.00     0.109 C 
ATOM      5  C0E MOL     1       0.938  10.103  -2.305  1.00  0.00    -0.064 C 
ATOM      6  C0N MOL     1      -0.285   9.425  -2.529  1.00  0.00    -0.120 C 
ENDROOT
BRANCH   5   7
ATOM      7  C0F MOL     1       0.978  11.540  -1.811  1.00  0.00     0.047 C 
BRANCH   7   8
ATOM      8  C0G MOL     1       0.695  11.839  -0.364  1.00  0.00     0.171 C 
ATOM      9  C0M MOL     1       0.463  10.808   0.569  1.00  0.00    -0.195 C 
ATOM     10  C0K MOL     1       0.179  11.103   1.928  1.00  0.00    -0.062 C 
ATOM     11  C0J MOL     1      -0.058  12.410   2.363  1.00  0.00    -0.135 C 
ATOM     12  C0I MOL     1       0.150  13.430   1.386  1.00  0.00    -0.071 C 
ATOM     13  C0H MOL     1       0.555  13.107   0.108  1.00  0.00    -0.152 C 
ENDBRANCH   7   8
ENDBRANCH   5   7
BRANCH   6  14
ATOM     14  C0O MOL     1      -1.656  10.155  -2.354  1.00  0.00     0.092 C 
BRANCH  14  15
ATOM     15  N0P MOL     1      -2.097  11.036  -3.482  1.00  0.00    -0.153 N 
ATOM     16  H0Q MOL     1      -1.360  11.136  -4.162  1.00  0.00     0.257 HD
ATOM     17  H0R MOL     1      -2.822  10.540  -3.991  1.00  0.00     0.244 HD
ATOM     18  H0S MOL     1      -2.383  11.967  -3.213  1.00  0.00     0.246 HD
ENDBRANCH  14  15
ENDBRANCH   6  14
BRANCH   4  19
ATOM     19  C0A MOL     1       3.447   9.957  -1.867  1.00  0.00    -0.219 C 
BRANCH  19  20
ATOM     20  C0B MOL     1       3.880   9.407  -0.469  1.00  0.00     0.819 C 
ATOM     21  N0C MOL     1       4.504   8.270  -0.447  1.00  0.00    -0.993 N 
ATOM     22  H13 MOL     1       4.703   7.852  -1.353  1.00  0.00     0.395 HD
ATOM     23  H14 MOL     1       4.732   7.830   0.425  1.00  0.00     0.440 HD
ATOM     24  O0D MOL     1       3.711  10.070   0.538  1.00  0.00    -0.614 OA
ENDBRANCH  19  20
ENDBRANCH   4  19
BRANCH   1  25
ATOM     25  C01 MOL     1      -1.692   7.396  -3.385  1.00  0.00    -0.066 C 
ATOM     26  C00 MOL     1      -2.187   7.708  -4.878  1.00  0.00    -0.126 C 
ENDBRANCH   1  25
BRANCH   2  27
ATOM     27  C04 MOL     1       1.099   6.056  -3.742  1.00  0.00    -0.266 C 
BRANCH  27  28
ATOM     28  C05 MOL     1       0.932   5.909  -5.234  1.00  0.00     0.870 C 
ATOM     29  O06 MOL     1       0.364   4.979  -5.772  1.00  0.00    -0.820 OA
ATOM     30  O07 MOL     1       1.349   6.865  -5.973  1.00  0.00    -0.676 OA
ENDBRANCH  27  28
ENDBRANCH   2  27
TORSDOF 9
ENDMDL
MODEL 18
REMARK VINA RESULT:      -5.2     16.720     19.714
REMARK  9 active torsions:
REMARK  status: ('A' for Active; 'I' for Inactive)
REMARK    1  A    between atoms: C01_2  and  C02_3 
REMARK    2  A    between atoms: C03_4  and  C04_5 
REMARK    3  A    between atoms: C04_5  and  C05_6 
REMARK    4  A    between atoms: C09_10  and  C0A_11 
REMARK    5  A    between atoms: C0A_11  and  C0B_12 
REMARK       I    between atoms: C0B_12  and  N0C_13 
REMARK    6  A    between atoms: C0E_15  and  C0F_16 
REMARK    7  A    between atoms: C0F_16  and  C0G_17 
REMARK    8  A    between atoms: C0N_23  and  C0O_24 
REMARK    9  A    between atoms: C0O_24  and  N0P_25 
ROOT
ATOM      1  C02 MOL     1      -4.549   7.823 -21.270  1.00  0.00    -0.044 C 
ATOM      2  C03 MOL     1      -3.226   8.275 -21.172  1.00  0.00     0.129 C 
ATOM      3  C08 MOL     1      -2.564   8.996 -22.245  1.00  0.00    -0.316 C 
ATOM      4  C09 MOL     1      -3.318   9.367 -23.343  1.00  0.00     0.109 C 
ATOM      5  C0E MOL     1      -4.587   8.903 -23.534  1.00  0.00    -0.064 C 
ATOM      6  C0N MOL     1      -5.236   8.230 -22.472  1.00  0.00    -0.120 C 
ENDROOT
BRANCH   5   7
ATOM      7  C0F MOL     1      -5.314   9.257 -24.822  1.00  0.00     0.047 C 
BRANCH   7   8
ATOM      8  C0G MOL     1      -5.307   8.287 -25.973  1.00  0.00     0.171 C 
ATOM      9  C0M MOL     1      -6.459   7.552 -26.322  1.00  0.00    -0.195 C 
ATOM     10  C0K MOL     1      -6.435   6.627 -27.398  1.00  0.00    -0.062 C 
ATOM     11  C0J MOL     1      -5.244   6.273 -28.038  1.00  0.00    -0.135 C 
ATOM     12  C0I MOL     1      -4.089   7.010 -27.638  1.00  0.00    -0.071 C 
ATOM     13  C0H MOL     1      -4.182   7.995 -26.678  1.00  0.00    -0.152 C 
ENDBRANCH   7   8
ENDBRANCH   5   7
BRANCH   6  14
ATOM     14  C0O MOL     1      -6.717   7.747 -22.608  1.00  0.00     0.092 C 
BRANCH  14  15
ATOM     15  N0P MOL     1      -6.923   6.322 -23.022  1.00  0.00    -0.153 N 
ATOM     16  H0Q MOL     1      -6.065   5.802 -22.938  1.00  0.00     0.257 HD
ATOM     17  H0R MOL     1      -7.532   5.889 -22.334  1.00  0.00     0.244 HD
ATOM     18  H0S MOL     1      -7.259   6.195 -23.967  1.00  0.00     0.246 HD
ENDBRANCH  14  15
ENDBRANCH   6  14
BRANCH   4  19
ATOM     19  C0A MOL     1      -2.654  10.380 -24.303  1.00  0.00    -0.219 C 
BRANCH  19  20
ATOM     20  C0B MOL     1      -2.873  11.884 -23.936  1.00  0.00     0.819 C 
ATOM     21  N0C MOL     1      -3.807  12.520 -24.575  1.00  0.00    -0.993 N 
ATOM     22  H13 MOL     1      -4.354  11.968 -25.232  1.00  0.00     0.395 HD
ATOM     23  H14 MOL     1      -3.937  13.506 -24.441  1.00  0.00     0.440 HD
ATOM     24  O0D MOL     1      -2.247  12.399 -23.028  1.00  0.00    -0.614 OA
ENDBRANCH  19  20
ENDBRANCH   4  19
BRANCH   1  25
ATOM     25  C01 MOL     1      -5.253   7.011 -20.160  1.00  0.00    -0.066 C 
ATOM     26  C00 MOL     1      -6.022   7.955 -19.117  1.00  0.00    -0.126 C 
ENDBRANCH   1  25
BRANCH   2  27
ATOM     27  C04 MOL     1      -2.295   7.982 -20.017  1.00  0.00    -0.266 C 
BRANCH  27  28
ATOM     28  C05 MOL     1      -1.676   6.607 -20.022  1.00  0.00     0.870 C 
ATOM     29  O06 MOL     1      -0.861   6.225 -20.839  1.00  0.00    -0.820 OA
ATOM     30  O07 MOL     1      -1.971   5.822 -19.057  1.00  0.00    -0.676 OA
ENDBRANCH  27  28
ENDBRANCH   2  27
TORSDOF 9
ENDMDL
MODEL 19
REMARK VINA RESULT:      -5.2     14.301     17.739
REMARK  9 active torsions:
REMARK  status: ('A' for Active; 'I' for Inactive)
REMARK    1  A    between atoms: C01_2  and  C02_3 
REMARK    2  A    between atoms: C03_4  and  C04_5 
REMARK    3  A    between atoms: C04_5  and  C05_6 
REMARK    4  A    between atoms: C09_10  and  C0A_11 
REMARK    5  A    between atoms: C0A_11  and  C0B_12 
REMARK       I    between atoms: C0B_12  and  N0C_13 
REMARK    6  A    between atoms: C0E_15  and  C0F_16 
REMARK    7  A    between atoms: C0F_16  and  C0G_17 
REMARK    8  A    between atoms: C0N_23  and  C0O_24 
REMARK    9  A    between atoms: C0O_24  and  N0P_25 
ROOT
ATOM      1  C02 MOL     1      -3.438   8.665 -22.329  1.00  0.00    -0.044 C 
ATOM      2  C03 MOL     1      -3.912   7.861 -21.283  1.00  0.00     0.129 C 
ATOM      3  C08 MOL     1      -3.049   6.967 -20.531  1.00  0.00    -0.316 C 
ATOM      4  C09 MOL     1      -1.689   7.020 -20.770  1.00  0.00     0.109 C 
ATOM      5  C0E MOL     1      -1.169   7.726 -21.816  1.00  0.00    -0.064 C 
ATOM      6  C0N MOL     1      -2.009   8.619 -22.522  1.00  0.00    -0.120 C 
ENDROOT
BRANCH   5   7
ATOM      7  C0F MOL     1       0.325   7.645 -22.088  1.00  0.00     0.047 C 
BRANCH   7   8
ATOM      8  C0G MOL     1       0.860   6.576 -23.002  1.00  0.00     0.171 C 
ATOM      9  C0M MOL     1       0.959   6.780 -24.394  1.00  0.00    -0.195 C 
ATOM     10  C0K MOL     1       1.448   5.757 -25.248  1.00  0.00    -0.062 C 
ATOM     11  C0J MOL     1       1.680   4.460 -24.784  1.00  0.00    -0.135 C 
ATOM     12  C0I MOL     1       1.537   4.276 -23.375  1.00  0.00    -0.071 C 
ATOM     13  C0H MOL     1       1.187   5.332 -22.561  1.00  0.00    -0.152 C 
ENDBRANCH   7   8
ENDBRANCH   5   7
BRANCH   6  14
ATOM     14  C0O MOL     1      -1.448   9.512 -23.677  1.00  0.00     0.092 C 
BRANCH  14  15
ATOM     15  N0P MOL     1      -0.922  10.859 -23.289  1.00  0.00    -0.153 N 
ATOM     16  H0Q MOL     1      -0.297  11.212 -23.996  1.00  0.00     0.257 HD
ATOM     17  H0R MOL     1      -1.701  11.510 -23.316  1.00  0.00     0.244 HD
ATOM     18  H0S MOL     1      -0.426  10.889 -22.410  1.00  0.00     0.246 HD
ENDBRANCH  14  15
ENDBRANCH   6  14
BRANCH   4  19
ATOM     19  C0A MOL     1      -0.797   6.280 -19.747  1.00  0.00    -0.219 C 
BRANCH  19  20
ATOM     20  C0B MOL     1      -0.438   7.100 -18.464  1.00  0.00     0.819 C 
ATOM     21  N0C MOL     1      -0.259   8.377 -18.608  1.00  0.00    -0.993 N 
ATOM     22  H13 MOL     1      -0.416   8.747 -19.542  1.00  0.00     0.395 HD
ATOM     23  H14 MOL     1       0.054   8.938 -17.837  1.00  0.00     0.440 HD
ATOM     24  O0D MOL     1      -0.417   6.564 -17.371  1.00  0.00    -0.614 OA
ENDBRANCH  19  20
ENDBRANCH   4  19
BRANCH   1  25
ATOM     25  C01 MOL     1      -4.349   9.583 -23.173  1.00  0.00    -0.066 C 
ATOM     26  C00 MOL     1      -5.038   8.796 -24.389  1.00  0.00    -0.126 C 
ENDBRANCH   1  25
BRANCH   2  27
ATOM     27  C04 MOL     1      -5.364   7.729 -20.882  1.00  0.00    -0.266 C 
BRANCH  27  28
ATOM     28  C05 MOL     1      -5.698   8.227 -19.499  1.00  0.00     0.870 C 
ATOM     29  O06 MOL     1      -6.242   7.557 -18.642  1.00  0.00    -0.820 OA
ATOM     30  O07 MOL     1      -5.313   9.404 -19.184  1.00  0.00    -0.676 OA
ENDBRANCH  27  28
ENDBRANCH   2  27
TORSDOF 9
ENDMDL
MODEL 20
REMARK VINA RESULT:      -5.0     14.943     17.976
REMARK  9 active torsions:
REMARK  status: ('A' for Active; 'I' for Inactive)
REMARK    1  A    between atoms: C01_2  and  C02_3 
REMARK    2  A    between atoms: C03_4  and  C04_5 
REMARK    3  A    between atoms: C04_5  and  C05_6 
REMARK    4  A    between atoms: C09_10  and  C0A_11 
REMARK    5  A    between atoms: C0A_11  and  C0B_12 
REMARK       I    between atoms: C0B_12  and  N0C_13 
REMARK    6  A    between atoms: C0E_15  and  C0F_16 
REMARK    7  A    between atoms: C0F_16  and  C0G_17 
REMARK    8  A    between atoms: C0N_23  and  C0O_24 
REMARK    9  A    between atoms: C0O_24  and  N0P_25 
ROOT
ATOM      1  C02 MOL     1      -1.540   6.738 -20.474  1.00  0.00    -0.044 C 
ATOM      2  C03 MOL     1      -0.483   7.092 -21.324  1.00  0.00     0.129 C 
ATOM      3  C08 MOL     1      -0.640   8.041 -22.413  1.00  0.00    -0.316 C 
ATOM      4  C09 MOL     1      -1.841   8.717 -22.521  1.00  0.00     0.109 C 
ATOM      5  C0E MOL     1      -2.930   8.373 -21.774  1.00  0.00    -0.064 C 
ATOM      6  C0N MOL     1      -2.761   7.473 -20.694  1.00  0.00    -0.120 C 
ENDROOT
BRANCH   5   7
ATOM      7  C0F MOL     1      -4.251   9.083 -22.028  1.00  0.00     0.047 C 
BRANCH   7   8
ATOM      8  C0G MOL     1      -5.253   8.476 -22.972  1.00  0.00     0.171 C 
ATOM      9  C0M MOL     1      -5.243   8.779 -24.349  1.00  0.00    -0.195 C 
ATOM     10  C0K MOL     1      -6.205   8.215 -25.227  1.00  0.00    -0.062 C 
ATOM     11  C0J MOL     1      -7.299   7.487 -24.750  1.00  0.00    -0.135 C 
ATOM     12  C0I MOL     1      -7.299   7.227 -23.347  1.00  0.00    -0.071 C 
ATOM     13  C0H MOL     1      -6.273   7.684 -22.548  1.00  0.00    -0.152 C 
ENDBRANCH   7   8
ENDBRANCH   5   7
BRANCH   6  14
ATOM     14  C0O MOL     1      -3.958   7.106 -19.757  1.00  0.00     0.092 C 
BRANCH  14  15
ATOM     15  N0P MOL     1      -4.697   5.842 -20.076  1.00  0.00    -0.153 N 
ATOM     16  H0Q MOL     1      -4.119   5.039 -19.892  1.00  0.00     0.257 HD
ATOM     17  H0R MOL     1      -5.451   5.752 -19.402  1.00  0.00     0.244 HD
ATOM     18  H0S MOL     1      -5.021   5.765 -21.030  1.00  0.00     0.246 HD
ENDBRANCH  14  15
ENDBRANCH   6  14
BRANCH   4  19
ATOM     19  C0A MOL     1      -1.851   9.918 -23.494  1.00  0.00    -0.219 C 
BRANCH  19  20
ATOM     20  C0B MOL     1      -1.640  11.316 -22.826  1.00  0.00     0.819 C 
ATOM     21  N0C MOL     1      -2.616  12.167 -22.911  1.00  0.00    -0.993 N 
ATOM     22  H13 MOL     1      -3.462  11.832 -23.367  1.00  0.00     0.395 HD
ATOM     23  H14 MOL     1      -2.506  13.105 -22.574  1.00  0.00     0.440 HD
ATOM     24  O0D MOL     1      -0.633  11.551 -22.184  1.00  0.00    -0.614 OA
ENDBRANCH  19  20
ENDBRANCH   4  19
BRANCH   1  25
ATOM     25  C01 MOL     1      -1.406   5.694 -19.344  1.00  0.00    -0.066 C 
ATOM     26  C00 MOL     1      -0.687   6.300 -18.045  1.00  0.00    -0.126 C 
ENDBRANCH   1  25
BRANCH   2  27
ATOM     27  C04 MOL     1       0.894   6.469 -21.300  1.00  0.00    -0.266 C 
BRANCH  27  28
ATOM     28  C05 MOL     1       1.997   7.362 -20.792  1.00  0.00     0.870 C 
ATOM     29  O06 MOL     1       1.951   7.980 -19.746  1.00  0.00    -0.820 OA
ATOM     30  O07 MOL     1       3.080   7.409 -21.468  1.00  0.00    -0.676 OA
ENDBRANCH  27  28
ENDBRANCH   2  27
TORSDOF 9
ENDMDL
