MODEL 1
REMARK VINA RESULT:      -6.2      0.000      0.000
REMARK  9 active torsions:
REMARK  status: ('A' for Active; 'I' for Inactive)
REMARK    1  A    between atoms: C01_2  and  C02_3 
REMARK    2  A    between atoms: C03_4  and  C04_5 
REMARK    3  A    between atoms: C04_5  and  C05_6 
REMARK    4  A    between atoms: C09_10  and  C0A_11 
REMARK    5  A    between atoms: C0A_11  and  C0B_12 
REMARK       I    between atoms: C0B_12  and  N0C_13 
REMARK    6  A    between atoms: C0E_15  and  C0F_16 
REMARK    7  A    between atoms: C0F_16  and  C0G_17 
REMARK    8  A    between atoms: C0N_23  and  C0O_24 
REMARK    9  A    between atoms: C0O_24  and  N0P_25 
ROOT
ATOM      1  C02 MOL     1       1.905   7.424  -6.510  1.00  0.00    -0.044 C 
ATOM      2  C03 MOL     1       1.302   6.325  -5.883  1.00  0.00     0.129 C 
ATOM      3  C08 MOL     1       0.291   6.471  -4.852  1.00  0.00    -0.316 C 
ATOM      4  C09 MOL     1      -0.188   7.739  -4.583  1.00  0.00     0.109 C 
ATOM      5  C0E MOL     1       0.400   8.856  -5.103  1.00  0.00    -0.064 C 
ATOM      6  C0N MOL     1       1.361   8.706  -6.131  1.00  0.00    -0.120 C 
ENDROOT
BRANCH   5   7
ATOM      7  C0F MOL     1      -0.106  10.223  -4.671  1.00  0.00     0.047 C 
BRANCH   7   8
ATOM      8  C0G MOL     1       0.459  10.871  -3.436  1.00  0.00     0.171 C 
ATOM      9  C0M MOL     1       1.849  11.040  -3.264  1.00  0.00    -0.195 C 
ATOM     10  C0K MOL     1       2.371  11.637  -2.087  1.00  0.00    -0.062 C 
ATOM     11  C0J MOL     1       1.561  11.917  -0.983  1.00  0.00    -0.135 C 
ATOM     12  C0I MOL     1       0.163  11.702  -1.176  1.00  0.00    -0.071 C 
ATOM     13  C0H MOL     1      -0.317  11.244  -2.384  1.00  0.00    -0.152 C 
ENDBRANCH   7   8
ENDBRANCH   5   7
BRANCH   6  14
ATOM     14  C0O MOL     1       2.009   9.952  -6.818  1.00  0.00     0.092 C 
BRANCH  14  15
ATOM     15  N0P MOL     1       1.268  10.538  -7.981  1.00  0.00    -0.153 N 
ATOM     16  H0Q MOL     1       0.440  11.017  -7.668  1.00  0.00     0.257 HD
ATOM     17  H0R MOL     1       1.842  11.283  -8.364  1.00  0.00     0.244 HD
ATOM     18  H0S MOL     1       0.980   9.873  -8.685  1.00  0.00     0.246 HD
ENDBRANCH  14  15
ENDBRANCH   6  14
BRANCH   4  19
ATOM     19  C0A MOL     1      -1.460   7.807  -3.706  1.00  0.00    -0.219 C 
BRANCH  19  20
ATOM     20  C0B MOL     1      -2.782   7.373  -4.421  1.00  0.00     0.819 C 
ATOM     21  N0C MOL     1      -2.978   7.816  -5.624  1.00  0.00    -0.993 N 
ATOM     22  H13 MOL     1      -2.226   8.375  -6.022  1.00  0.00     0.395 HD
ATOM     23  H14 MOL     1      -3.844   7.639  -6.098  1.00  0.00     0.440 HD
ATOM     24  O0D MOL     1      -3.542   6.582  -3.892  1.00  0.00    -0.614 OA
ENDBRANCH  19  20
ENDBRANCH   4  19
BRANCH   1  25
ATOM     25  C01 MOL     1       3.019   7.290  -7.572  1.00  0.00    -0.066 C 
ATOM     26  C00 MOL     1       4.475   7.182  -6.909  1.00  0.00    -0.126 C 
ENDBRANCH   1  25
BRANCH   2  27
ATOM     27  C04 MOL     1       1.693   4.881  -6.105  1.00  0.00    -0.266 C 
BRANCH  27  28
ATOM     28  C05 MOL     1       0.930   4.167  -7.193  1.00  0.00     0.870 C 
ATOM     29  O06 MOL     1      -0.151   3.635  -7.035  1.00  0.00    -0.820 OA
ATOM     30  O07 MOL     1       1.420   4.192  -8.372  1.00  0.00    -0.676 OA
ENDBRANCH  27  28
ENDBRANCH   2  27
TORSDOF 9
ENDMDL
MODEL 2
REMARK VINA RESULT:      -5.7      3.526      6.401
REMARK  9 active torsions:
REMARK  status: ('A' for Active; 'I' for Inactive)
REMARK    1  A    between atoms: C01_2  and  C02_3 
REMARK    2  A    between atoms: C03_4  and  C04_5 
REMARK    3  A    between atoms: C04_5  and  C05_6 
REMARK    4  A    between atoms: C09_10  and  C0A_11 
REMARK    5  A    between atoms: C0A_11  and  C0B_12 
REMARK       I    between atoms: C0B_12  and  N0C_13 
REMARK    6  A    between atoms: C0E_15  and  C0F_16 
REMARK    7  A    between atoms: C0F_16  and  C0G_17 
REMARK    8  A    between atoms: C0N_23  and  C0O_24 
REMARK    9  A    between atoms: C0O_24  and  N0P_25 
ROOT
ATOM      1  C02 MOL     1       2.047  11.186  -1.637  1.00  0.00    -0.044 C 
ATOM      2  C03 MOL     1       0.769  11.491  -1.150  1.00  0.00     0.129 C 
ATOM      3  C08 MOL     1      -0.419  11.437  -1.984  1.00  0.00    -0.316 C 
ATOM      4  C09 MOL     1      -0.294  10.932  -3.265  1.00  0.00     0.109 C 
ATOM      5  C0E MOL     1       0.926  10.683  -3.824  1.00  0.00    -0.064 C 
ATOM      6  C0N MOL     1       2.074  10.706  -2.997  1.00  0.00    -0.120 C 
ENDROOT
BRANCH   5   7
ATOM      7  C0F MOL     1       0.993  10.241  -5.278  1.00  0.00     0.047 C 
BRANCH   7   8
ATOM      8  C0G MOL     1       1.254  11.258  -6.355  1.00  0.00     0.171 C 
ATOM      9  C0M MOL     1       0.228  12.093  -6.843  1.00  0.00    -0.195 C 
ATOM     10  C0K MOL     1       0.482  13.036  -7.873  1.00  0.00    -0.062 C 
ATOM     11  C0J MOL     1       1.695  13.058  -8.567  1.00  0.00    -0.135 C 
ATOM     12  C0I MOL     1       2.703  12.176  -8.072  1.00  0.00    -0.071 C 
ATOM     13  C0H MOL     1       2.455  11.368  -6.982  1.00  0.00    -0.152 C 
ENDBRANCH   7   8
ENDBRANCH   5   7
BRANCH   6  14
ATOM     14  C0O MOL     1       3.486  10.351  -3.568  1.00  0.00     0.092 C 
BRANCH  14  15
ATOM     15  N0P MOL     1       3.892   8.910  -3.507  1.00  0.00    -0.153 N 
ATOM     16  H0Q MOL     1       4.401   8.722  -2.659  1.00  0.00     0.257 HD
ATOM     17  H0R MOL     1       3.045   8.359  -3.402  1.00  0.00     0.244 HD
ATOM     18  H0S MOL     1       4.464   8.593  -4.276  1.00  0.00     0.246 HD
ENDBRANCH  14  15
ENDBRANCH   6  14
BRANCH   4  19
ATOM     19  C0A MOL     1      -1.619  10.616  -3.996  1.00  0.00    -0.219 C 
BRANCH  19  20
ATOM     20  C0B MOL     1      -2.074   9.122  -3.928  1.00  0.00     0.819 C 
ATOM     21  N0C MOL     1      -2.530   8.591  -5.021  1.00  0.00    -0.993 N 
ATOM     22  H13 MOL     1      -2.507   9.183  -5.848  1.00  0.00     0.395 HD
ATOM     23  H14 MOL     1      -2.913   7.664  -5.017  1.00  0.00     0.440 HD
ATOM     24  O0D MOL     1      -1.921   8.472  -2.910  1.00  0.00    -0.614 OA
ENDBRANCH  19  20
ENDBRANCH   4  19
BRANCH   1  25
ATOM     25  C01 MOL     1       3.328  11.287  -0.780  1.00  0.00    -0.066 C 
ATOM     26  C00 MOL     1       3.624   9.932   0.025  1.00  0.00    -0.126 C 
ENDBRANCH   1  25
BRANCH   2  27
ATOM     27  C04 MOL     1       0.473  12.015   0.237  1.00  0.00    -0.266 C 
BRANCH  27  28
ATOM     28  C05 MOL     1       0.387  10.966   1.317  1.00  0.00     0.870 C 
ATOM     29  O06 MOL     1      -0.304   9.968   1.250  1.00  0.00    -0.820 OA
ATOM     30  O07 MOL     1       1.151  11.098   2.332  1.00  0.00    -0.676 OA
ENDBRANCH  27  28
ENDBRANCH   2  27
TORSDOF 9
ENDMDL
MODEL 3
REMARK VINA RESULT:      -5.6      2.617      3.464
REMARK  9 active torsions:
REMARK  status: ('A' for Active; 'I' for Inactive)
REMARK    1  A    between atoms: C01_2  and  C02_3 
REMARK    2  A    between atoms: C03_4  and  C04_5 
REMARK    3  A    between atoms: C04_5  and  C05_6 
REMARK    4  A    between atoms: C09_10  and  C0A_11 
REMARK    5  A    between atoms: C0A_11  and  C0B_12 
REMARK       I    between atoms: C0B_12  and  N0C_13 
REMARK    6  A    between atoms: C0E_15  and  C0F_16 
REMARK    7  A    between atoms: C0F_16  and  C0G_17 
REMARK    8  A    between atoms: C0N_23  and  C0O_24 
REMARK    9  A    between atoms: C0O_24  and  N0P_25 
ROOT
ATOM      1  C02 MOL     1       1.880   6.585  -5.585  1.00  0.00    -0.044 C 
ATOM      2  C03 MOL     1       1.250   6.202  -4.393  1.00  0.00     0.129 C 
ATOM      3  C08 MOL     1       0.769   7.165  -3.417  1.00  0.00    -0.316 C 
ATOM      4  C09 MOL     1       0.814   8.506  -3.749  1.00  0.00     0.109 C 
ATOM      5  C0E MOL     1       1.474   8.952  -4.857  1.00  0.00    -0.064 C 
ATOM      6  C0N MOL     1       1.910   8.009  -5.818  1.00  0.00    -0.120 C 
ENDROOT
BRANCH   5   7
ATOM      7  C0F MOL     1       1.583  10.450  -5.097  1.00  0.00     0.047 C 
BRANCH   7   8
ATOM      8  C0G MOL     1       2.837  11.179  -4.699  1.00  0.00     0.171 C 
ATOM      9  C0M MOL     1       3.120  11.474  -3.349  1.00  0.00    -0.195 C 
ATOM     10  C0K MOL     1       4.298  12.178  -2.988  1.00  0.00    -0.062 C 
ATOM     11  C0J MOL     1       5.130  12.762  -3.947  1.00  0.00    -0.135 C 
ATOM     12  C0I MOL     1       4.797  12.475  -5.306  1.00  0.00    -0.071 C 
ATOM     13  C0H MOL     1       3.717  11.675  -5.610  1.00  0.00    -0.152 C 
ENDBRANCH   7   8
ENDBRANCH   5   7
BRANCH   6  14
ATOM     14  C0O MOL     1       2.601   8.468  -7.144  1.00  0.00     0.092 C 
BRANCH  14  15
ATOM     15  N0P MOL     1       1.703   8.717  -8.317  1.00  0.00    -0.153 N 
ATOM     16  H0Q MOL     1       0.926   8.077  -8.310  1.00  0.00     0.257 HD
ATOM     17  H0R MOL     1       1.266   9.623  -8.180  1.00  0.00     0.244 HD
ATOM     18  H0S MOL     1       2.147   8.637  -9.221  1.00  0.00     0.246 HD
ENDBRANCH  14  15
ENDBRANCH   6  14
BRANCH   4  19
ATOM     19  C0A MOL     1       0.024   9.456  -2.819  1.00  0.00    -0.219 C 
BRANCH  19  20
ATOM     20  C0B MOL     1       0.399   9.365  -1.304  1.00  0.00     0.819 C 
ATOM     21  N0C MOL     1       1.660   9.281  -1.010  1.00  0.00    -0.993 N 
ATOM     22  H13 MOL     1       2.306   9.330  -1.794  1.00  0.00     0.395 HD
ATOM     23  H14 MOL     1       1.954   9.136  -0.062  1.00  0.00     0.440 HD
ATOM     24  O0D MOL     1      -0.459   9.458  -0.445  1.00  0.00    -0.614 OA
ENDBRANCH  19  20
ENDBRANCH   4  19
BRANCH   1  25
ATOM     25  C01 MOL     1       2.443   5.576  -6.609  1.00  0.00    -0.066 C 
ATOM     26  C00 MOL     1       1.297   4.979  -7.560  1.00  0.00    -0.126 C 
ENDBRANCH   1  25
BRANCH   2  27
ATOM     27  C04 MOL     1       1.092   4.776  -3.916  1.00  0.00    -0.266 C 
BRANCH  27  28
ATOM     28  C05 MOL     1      -0.282   4.183  -4.099  1.00  0.00     0.870 C 
ATOM     29  O06 MOL     1      -0.565   3.356  -4.944  1.00  0.00    -0.820 OA
ATOM     30  O07 MOL     1      -1.187   4.517  -3.260  1.00  0.00    -0.676 OA
ENDBRANCH  27  28
ENDBRANCH   2  27
TORSDOF 9
ENDMDL
MODEL 4
REMARK VINA RESULT:      -5.6      1.876      3.922
REMARK  9 active torsions:
REMARK  status: ('A' for Active; 'I' for Inactive)
REMARK    1  A    between atoms: C01_2  and  C02_3 
REMARK    2  A    between atoms: C03_4  and  C04_5 
REMARK    3  A    between atoms: C04_5  and  C05_6 
REMARK    4  A    between atoms: C09_10  and  C0A_11 
REMARK    5  A    between atoms: C0A_11  and  C0B_12 
REMARK       I    between atoms: C0B_12  and  N0C_13 
REMARK    6  A    between atoms: C0E_15  and  C0F_16 
REMARK    7  A    between atoms: C0F_16  and  C0G_17 
REMARK    8  A    between atoms: C0N_23  and  C0O_24 
REMARK    9  A    between atoms: C0O_24  and  N0P_25 
ROOT
ATOM      1  C02 MOL     1       1.037   6.449  -4.518  1.00  0.00    -0.044 C 
ATOM      2  C03 MOL     1       1.686   6.587  -5.752  1.00  0.00     0.129 C 
ATOM      3  C08 MOL     1       1.685   7.832  -6.501  1.00  0.00    -0.316 C 
ATOM      4  C09 MOL     1       1.140   8.952  -5.903  1.00  0.00     0.109 C 
ATOM      5  C0E MOL     1       0.433   8.874  -4.738  1.00  0.00    -0.064 C 
ATOM      6  C0N MOL     1       0.467   7.668  -3.998  1.00  0.00    -0.120 C 
ENDROOT
BRANCH   5   7
ATOM      7  C0F MOL     1      -0.238  10.128  -4.199  1.00  0.00     0.047 C 
BRANCH   7   8
ATOM      8  C0G MOL     1       0.393  10.879  -3.058  1.00  0.00     0.171 C 
ATOM      9  C0M MOL     1       1.792  11.035  -2.964  1.00  0.00    -0.195 C 
ATOM     10  C0K MOL     1       2.376  11.731  -1.874  1.00  0.00    -0.062 C 
ATOM     11  C0J MOL     1       1.622  12.131  -0.767  1.00  0.00    -0.135 C 
ATOM     12  C0I MOL     1       0.214  11.928  -0.877  1.00  0.00    -0.071 C 
ATOM     13  C0H MOL     1      -0.328  11.367  -2.014  1.00  0.00    -0.152 C 
ENDBRANCH   7   8
ENDBRANCH   5   7
BRANCH   6  14
ATOM     14  C0O MOL     1      -0.259   7.548  -2.618  1.00  0.00     0.092 C 
BRANCH  14  15
ATOM     15  N0P MOL     1      -1.716   7.204  -2.654  1.00  0.00    -0.153 N 
ATOM     16  H0Q MOL     1      -2.278   8.026  -2.500  1.00  0.00     0.257 HD
ATOM     17  H0R MOL     1      -1.943   6.937  -3.607  1.00  0.00     0.244 HD
ATOM     18  H0S MOL     1      -2.010   6.511  -1.980  1.00  0.00     0.246 HD
ENDBRANCH  14  15
ENDBRANCH   6  14
BRANCH   4  19
ATOM     19  C0A MOL     1       1.431  10.299  -6.605  1.00  0.00    -0.219 C 
BRANCH  19  20
ATOM     20  C0B MOL     1       2.945  10.611  -6.839  1.00  0.00     0.819 C 
ATOM     21  N0C MOL     1       3.674  10.833  -5.788  1.00  0.00    -0.993 N 
ATOM     22  H13 MOL     1       3.204  10.737  -4.891  1.00  0.00     0.395 HD
ATOM     23  H14 MOL     1       4.630  11.120  -5.882  1.00  0.00     0.440 HD
ATOM     24  O0D MOL     1       3.424  10.559  -7.957  1.00  0.00    -0.614 OA
ENDBRANCH  19  20
ENDBRANCH   4  19
BRANCH   1  25
ATOM     25  C01 MOL     1       0.984   5.121  -3.731  1.00  0.00    -0.066 C 
ATOM     26  C00 MOL     1      -0.273   4.219  -4.155  1.00  0.00    -0.126 C 
ENDBRANCH   1  25
BRANCH   2  27
ATOM     27  C04 MOL     1       2.358   5.463  -6.508  1.00  0.00    -0.266 C 
BRANCH  27  28
ATOM     28  C05 MOL     1       1.606   4.957  -7.713  1.00  0.00     0.870 C 
ATOM     29  O06 MOL     1       1.989   5.080  -8.860  1.00  0.00    -0.820 OA
ATOM     30  O07 MOL     1       0.537   4.289  -7.506  1.00  0.00    -0.676 OA
ENDBRANCH  27  28
ENDBRANCH   2  27
TORSDOF 9
ENDMDL
MODEL 5
REMARK VINA RESULT:      -5.6     14.030     16.543
REMARK  9 active torsions:
REMARK  status: ('A' for Active; 'I' for Inactive)
REMARK    1  A    between atoms: C01_2  and  C02_3 
REMARK    2  A    between atoms: C03_4  and  C04_5 
REMARK    3  A    between atoms: C04_5  and  C05_6 
REMARK    4  A    between atoms: C09_10  and  C0A_11 
REMARK    5  A    between atoms: C0A_11  and  C0B_12 
REMARK       I    between atoms: C0B_12  and  N0C_13 
REMARK    6  A    between atoms: C0E_15  and  C0F_16 
REMARK    7  A    between atoms: C0F_16  and  C0G_17 
REMARK    8  A    between atoms: C0N_23  and  C0O_24 
REMARK    9  A    between atoms: C0O_24  and  N0P_25 
ROOT
ATOM      1  C02 MOL     1      -4.241   7.370 -20.328  1.00  0.00    -0.044 C 
ATOM      2  C03 MOL     1      -3.787   6.210 -19.685  1.00  0.00     0.129 C 
ATOM      3  C08 MOL     1      -2.382   5.967 -19.409  1.00  0.00    -0.316 C 
ATOM      4  C09 MOL     1      -1.482   6.984 -19.667  1.00  0.00     0.109 C 
ATOM      5  C0E MOL     1      -1.842   8.107 -20.353  1.00  0.00    -0.064 C 
ATOM      6  C0N MOL     1      -3.216   8.352 -20.590  1.00  0.00    -0.120 C 
ENDROOT
BRANCH   5   7
ATOM      7  C0F MOL     1      -0.774   9.130 -20.704  1.00  0.00     0.047 C 
BRANCH   7   8
ATOM      8  C0G MOL     1      -0.208   9.169 -22.098  1.00  0.00     0.171 C 
ATOM      9  C0M MOL     1      -0.208   8.026 -22.924  1.00  0.00    -0.195 C 
ATOM     10  C0K MOL     1       0.344   8.070 -24.231  1.00  0.00    -0.062 C 
ATOM     11  C0J MOL     1       1.066   9.177 -24.687  1.00  0.00    -0.135 C 
ATOM     12  C0I MOL     1       1.078  10.306 -23.813  1.00  0.00    -0.071 C 
ATOM     13  C0H MOL     1       0.415  10.266 -22.605  1.00  0.00    -0.152 C 
ENDBRANCH   7   8
ENDBRANCH   5   7
BRANCH   6  14
ATOM     14  C0O MOL     1      -3.692   9.661 -21.300  1.00  0.00     0.092 C 
BRANCH  14  15
ATOM     15  N0P MOL     1      -3.701   9.646 -22.798  1.00  0.00    -0.153 N 
ATOM     16  H0Q MOL     1      -4.255   8.878 -23.140  1.00  0.00     0.257 HD
ATOM     17  H0R MOL     1      -4.216  10.466 -23.108  1.00  0.00     0.244 HD
ATOM     18  H0S MOL     1      -2.792   9.577 -23.232  1.00  0.00     0.246 HD
ENDBRANCH  14  15
ENDBRANCH   6  14
BRANCH   4  19
ATOM     19  C0A MOL     1      -0.064   6.791 -19.082  1.00  0.00    -0.219 C 
BRANCH  19  20
ATOM     20  C0B MOL     1       0.124   7.302 -17.616  1.00  0.00     0.819 C 
ATOM     21  N0C MOL     1      -0.006   6.431 -16.664  1.00  0.00    -0.993 N 
ATOM     22  H13 MOL     1      -0.172   5.471 -16.957  1.00  0.00     0.395 HD
ATOM     23  H14 MOL     1       0.021   6.717 -15.703  1.00  0.00     0.440 HD
ATOM     24  O0D MOL     1       0.463   8.452 -17.398  1.00  0.00    -0.614 OA
ENDBRANCH  19  20
ENDBRANCH   4  19
BRANCH   1  25
ATOM     25  C01 MOL     1      -5.724   7.622 -20.676  1.00  0.00    -0.066 C 
ATOM     26  C00 MOL     1      -6.120   7.015 -22.107  1.00  0.00    -0.126 C 
ENDBRANCH   1  25
BRANCH   2  27
ATOM     27  C04 MOL     1      -4.658   5.034 -19.307  1.00  0.00    -0.266 C 
BRANCH  27  28
ATOM     28  C05 MOL     1      -5.184   5.050 -17.893  1.00  0.00     0.870 C 
ATOM     29  O06 MOL     1      -5.919   5.909 -17.445  1.00  0.00    -0.820 OA
ATOM     30  O07 MOL     1      -4.901   4.054 -17.145  1.00  0.00    -0.676 OA
ENDBRANCH  27  28
ENDBRANCH   2  27
TORSDOF 9
ENDMDL
MODEL 6
REMARK VINA RESULT:      -5.4     14.027     16.799
REMARK  9 active torsions:
REMARK  status: ('A' for Active; 'I' for Inactive)
REMARK    1  A    between atoms: C01_2  and  C02_3 
REMARK    2  A    between atoms: C03_4  and  C04_5 
REMARK    3  A    between atoms: C04_5  and  C05_6 
REMARK    4  A    between atoms: C09_10  and  C0A_11 
REMARK    5  A    between atoms: C0A_11  and  C0B_12 
REMARK       I    between atoms: C0B_12  and  N0C_13 
REMARK    6  A    between atoms: C0E_15  and  C0F_16 
REMARK    7  A    between atoms: C0F_16  and  C0G_17 
REMARK    8  A    between atoms: C0N_23  and  C0O_24 
REMARK    9  A    between atoms: C0O_24  and  N0P_25 
ROOT
ATOM      1  C02 MOL     1      -2.647   7.942 -21.760  1.00  0.00    -0.044 C 
ATOM      2  C03 MOL     1      -3.326   7.279 -20.729  1.00  0.00     0.129 C 
ATOM      3  C08 MOL     1      -2.648   6.430 -19.765  1.00  0.00    -0.316 C 
ATOM      4  C09 MOL     1      -1.267   6.392 -19.788  1.00  0.00     0.109 C 
ATOM      5  C0E MOL     1      -0.548   6.955 -20.803  1.00  0.00    -0.064 C 
ATOM      6  C0N MOL     1      -1.211   7.807 -21.719  1.00  0.00    -0.120 C 
ENDROOT
BRANCH   5   7
ATOM      7  C0F MOL     1       0.961   6.773 -20.825  1.00  0.00     0.047 C 
BRANCH   7   8
ATOM      8  C0G MOL     1       1.551   5.507 -21.387  1.00  0.00     0.171 C 
ATOM      9  C0M MOL     1       2.538   4.782 -20.687  1.00  0.00    -0.195 C 
ATOM     10  C0K MOL     1       3.100   3.600 -21.235  1.00  0.00    -0.062 C 
ATOM     11  C0J MOL     1       2.839   3.202 -22.550  1.00  0.00    -0.135 C 
ATOM     12  C0I MOL     1       1.862   3.977 -23.244  1.00  0.00    -0.071 C 
ATOM     13  C0H MOL     1       1.242   5.042 -22.626  1.00  0.00    -0.152 C 
ENDBRANCH   7   8
ENDBRANCH   5   7
BRANCH   6  14
ATOM     14  C0O MOL     1      -0.423   8.541 -22.852  1.00  0.00     0.092 C 
BRANCH  14  15
ATOM     15  N0P MOL     1       0.127   9.894 -22.519  1.00  0.00    -0.153 N 
ATOM     16  H0Q MOL     1       0.535  10.320 -23.335  1.00  0.00     0.257 HD
ATOM     17  H0R MOL     1      -0.659  10.498 -22.303  1.00  0.00     0.244 HD
ATOM     18  H0S MOL     1       0.831   9.903 -21.794  1.00  0.00     0.246 HD
ENDBRANCH  14  15
ENDBRANCH   6  14
BRANCH   4  19
ATOM     19  C0A MOL     1      -0.592   5.724 -18.568  1.00  0.00    -0.219 C 
BRANCH  19  20
ATOM     20  C0B MOL     1      -0.175   6.702 -17.422  1.00  0.00     0.819 C 
ATOM     21  N0C MOL     1       0.082   6.180 -16.262  1.00  0.00    -0.993 N 
ATOM     22  H13 MOL     1       0.036   5.165 -16.209  1.00  0.00     0.395 HD
ATOM     23  H14 MOL     1       0.272   6.766 -15.470  1.00  0.00     0.440 HD
ATOM     24  O0D MOL     1      -0.017   7.889 -17.645  1.00  0.00    -0.614 OA
ENDBRANCH  19  20
ENDBRANCH   4  19
BRANCH   1  25
ATOM     25  C01 MOL     1      -3.357   8.807 -22.824  1.00  0.00    -0.066 C 
ATOM     26  C00 MOL     1      -3.519  10.332 -22.353  1.00  0.00    -0.126 C 
ENDBRANCH   1  25
BRANCH   2  27
ATOM     27  C04 MOL     1      -4.828   7.262 -20.553  1.00  0.00    -0.266 C 
BRANCH  27  28
ATOM     28  C05 MOL     1      -5.363   8.190 -19.491  1.00  0.00     0.870 C 
ATOM     29  O06 MOL     1      -5.048   9.359 -19.382  1.00  0.00    -0.820 OA
ATOM     30  O07 MOL     1      -6.263   7.736 -18.707  1.00  0.00    -0.676 OA
ENDBRANCH  27  28
ENDBRANCH   2  27
TORSDOF 9
ENDMDL
MODEL 7
REMARK VINA RESULT:      -5.4      1.662      2.012
REMARK  9 active torsions:
REMARK  status: ('A' for Active; 'I' for Inactive)
REMARK    1  A    between atoms: C01_2  and  C02_3 
REMARK    2  A    between atoms: C03_4  and  C04_5 
REMARK    3  A    between atoms: C04_5  and  C05_6 
REMARK    4  A    between atoms: C09_10  and  C0A_11 
REMARK    5  A    between atoms: C0A_11  and  C0B_12 
REMARK       I    between atoms: C0B_12  and  N0C_13 
REMARK    6  A    between atoms: C0E_15  and  C0F_16 
REMARK    7  A    between atoms: C0F_16  and  C0G_17 
REMARK    8  A    between atoms: C0N_23  and  C0O_24 
REMARK    9  A    between atoms: C0O_24  and  N0P_25 
ROOT
ATOM      1  C02 MOL     1       1.911   8.100  -6.849  1.00  0.00    -0.044 C 
ATOM      2  C03 MOL     1       1.271   6.947  -6.374  1.00  0.00     0.129 C 
ATOM      3  C08 MOL     1       0.278   6.983  -5.316  1.00  0.00    -0.316 C 
ATOM      4  C09 MOL     1      -0.147   8.218  -4.862  1.00  0.00     0.109 C 
ATOM      5  C0E MOL     1       0.480   9.374  -5.229  1.00  0.00    -0.064 C 
ATOM      6  C0N MOL     1       1.423   9.334  -6.284  1.00  0.00    -0.120 C 
ENDROOT
BRANCH   5   7
ATOM      7  C0F MOL     1       0.034  10.684  -4.600  1.00  0.00     0.047 C 
BRANCH   7   8
ATOM      8  C0G MOL     1       0.539  11.066  -3.235  1.00  0.00     0.171 C 
ATOM      9  C0M MOL     1      -0.345  11.436  -2.200  1.00  0.00    -0.195 C 
ATOM     10  C0K MOL     1       0.145  11.811  -0.922  1.00  0.00    -0.062 C 
ATOM     11  C0J MOL     1       1.508  12.003  -0.684  1.00  0.00    -0.135 C 
ATOM     12  C0I MOL     1       2.376  11.654  -1.762  1.00  0.00    -0.071 C 
ATOM     13  C0H MOL     1       1.864  11.167  -2.946  1.00  0.00    -0.152 C 
ENDBRANCH   7   8
ENDBRANCH   5   7
BRANCH   6  14
ATOM     14  C0O MOL     1       2.113  10.640  -6.798  1.00  0.00     0.092 C 
BRANCH  14  15
ATOM     15  N0P MOL     1       3.346  11.079  -6.070  1.00  0.00    -0.153 N 
ATOM     16  H0Q MOL     1       4.116  11.185  -6.711  1.00  0.00     0.257 HD
ATOM     17  H0R MOL     1       3.184  12.025  -5.737  1.00  0.00     0.244 HD
ATOM     18  H0S MOL     1       3.653  10.459  -5.334  1.00  0.00     0.246 HD
ENDBRANCH  14  15
ENDBRANCH   6  14
BRANCH   4  19
ATOM     19  C0A MOL     1      -1.405   8.209  -3.964  1.00  0.00    -0.219 C 
BRANCH  19  20
ATOM     20  C0B MOL     1      -1.239   7.470  -2.597  1.00  0.00     0.819 C 
ATOM     21  N0C MOL     1      -1.763   6.287  -2.495  1.00  0.00    -0.993 N 
ATOM     22  H13 MOL     1      -2.199   5.918  -3.337  1.00  0.00     0.395 HD
ATOM     23  H14 MOL     1      -1.760   5.801  -1.617  1.00  0.00     0.440 HD
ATOM     24  O0D MOL     1      -0.571   7.959  -1.704  1.00  0.00    -0.614 OA
ENDBRANCH  19  20
ENDBRANCH   4  19
BRANCH   1  25
ATOM     25  C01 MOL     1       3.007   8.075  -7.937  1.00  0.00    -0.066 C 
ATOM     26  C00 MOL     1       4.471   7.872  -7.315  1.00  0.00    -0.126 C 
ENDBRANCH   1  25
BRANCH   2  27
ATOM     27  C04 MOL     1       1.601   5.535  -6.804  1.00  0.00    -0.266 C 
BRANCH  27  28
ATOM     28  C05 MOL     1       2.788   4.912  -6.114  1.00  0.00     0.870 C 
ATOM     29  O06 MOL     1       3.117   5.150  -4.968  1.00  0.00    -0.820 OA
ATOM     30  O07 MOL     1       3.442   4.019  -6.753  1.00  0.00    -0.676 OA
ENDBRANCH  27  28
ENDBRANCH   2  27
TORSDOF 9
ENDMDL
MODEL 8
REMARK VINA RESULT:      -5.4     16.387     18.218
REMARK  9 active torsions:
REMARK  status: ('A' for Active; 'I' for Inactive)
REMARK    1  A    between atoms: C01_2  and  C02_3 
REMARK    2  A    between atoms: C03_4  and  C04_5 
REMARK    3  A    between atoms: C04_5  and  C05_6 
REMARK    4  A    between atoms: C09_10  and  C0A_11 
REMARK    5  A    between atoms: C0A_11  and  C0B_12 
REMARK       I    between atoms: C0B_12  and  N0C_13 
REMARK    6  A    between atoms: C0E_15  and  C0F_16 
REMARK    7  A    between atoms: C0F_16  and  C0G_17 
REMARK    8  A    between atoms: C0N_23  and  C0O_24 
REMARK    9  A    between atoms: C0O_24  and  N0P_25 
ROOT
ATOM      1  C02 MOL     1      -5.227   8.726 -23.768  1.00  0.00    -0.044 C 
ATOM      2  C03 MOL     1      -6.200   7.827 -23.311  1.00  0.00     0.129 C 
ATOM      3  C08 MOL     1      -6.160   7.241 -21.983  1.00  0.00    -0.316 C 
ATOM      4  C09 MOL     1      -5.202   7.698 -21.097  1.00  0.00     0.109 C 
ATOM      5  C0E MOL     1      -4.186   8.517 -21.495  1.00  0.00    -0.064 C 
ATOM      6  C0N MOL     1      -4.250   9.110 -22.779  1.00  0.00    -0.120 C 
ENDROOT
BRANCH   5   7
ATOM      7  C0F MOL     1      -3.102   8.885 -20.495  1.00  0.00     0.047 C 
BRANCH   7   8
ATOM      8  C0G MOL     1      -1.766   8.195 -20.555  1.00  0.00     0.171 C 
ATOM      9  C0M MOL     1      -0.562   8.903 -20.362  1.00  0.00    -0.195 C 
ATOM     10  C0K MOL     1       0.692   8.244 -20.438  1.00  0.00    -0.062 C 
ATOM     11  C0J MOL     1       0.803   6.923 -20.880  1.00  0.00    -0.135 C 
ATOM     12  C0I MOL     1      -0.432   6.243 -21.101  1.00  0.00    -0.071 C 
ATOM     13  C0H MOL     1      -1.634   6.883 -20.887  1.00  0.00    -0.152 C 
ENDBRANCH   7   8
ENDBRANCH   5   7
BRANCH   6  14
ATOM     14  C0O MOL     1      -3.154  10.118 -23.257  1.00  0.00     0.092 C 
BRANCH  14  15
ATOM     15  N0P MOL     1      -1.925   9.529 -23.878  1.00  0.00    -0.153 N 
ATOM     16  H0Q MOL     1      -1.337   9.114 -23.173  1.00  0.00     0.257 HD
ATOM     17  H0R MOL     1      -2.218   8.735 -24.440  1.00  0.00     0.244 HD
ATOM     18  H0S MOL     1      -1.354  10.179 -24.399  1.00  0.00     0.246 HD
ENDBRANCH  14  15
ENDBRANCH   6  14
BRANCH   4  19
ATOM     19  C0A MOL     1      -5.390   7.269 -19.623  1.00  0.00    -0.219 C 
BRANCH  19  20
ATOM     20  C0B MOL     1      -6.170   8.289 -18.730  1.00  0.00     0.819 C 
ATOM     21  N0C MOL     1      -6.898   7.802 -17.773  1.00  0.00    -0.993 N 
ATOM     22  H13 MOL     1      -6.862   6.792 -17.654  1.00  0.00     0.395 HD
ATOM     23  H14 MOL     1      -7.485   8.401 -17.222  1.00  0.00     0.440 HD
ATOM     24  O0D MOL     1      -6.021   9.488 -18.882  1.00  0.00    -0.614 OA
ENDBRANCH  19  20
ENDBRANCH   4  19
BRANCH   1  25
ATOM     25  C01 MOL     1      -5.225   9.321 -25.194  1.00  0.00    -0.066 C 
ATOM     26  C00 MOL     1      -4.539   8.335 -26.257  1.00  0.00    -0.126 C 
ENDBRANCH   1  25
BRANCH   2  27
ATOM     27  C04 MOL     1      -7.327   7.270 -24.150  1.00  0.00    -0.266 C 
BRANCH  27  28
ATOM     28  C05 MOL     1      -8.349   8.280 -24.609  1.00  0.00     0.870 C 
ATOM     29  O06 MOL     1      -8.949   9.033 -23.866  1.00  0.00    -0.820 OA
ATOM     30  O07 MOL     1      -8.537   8.403 -25.867  1.00  0.00    -0.676 OA
ENDBRANCH  27  28
ENDBRANCH   2  27
TORSDOF 9
ENDMDL
MODEL 9
REMARK VINA RESULT:      -5.3     12.417     15.413
REMARK  9 active torsions:
REMARK  status: ('A' for Active; 'I' for Inactive)
REMARK    1  A    between atoms: C01_2  and  C02_3 
REMARK    2  A    between atoms: C03_4  and  C04_5 
REMARK    3  A    between atoms: C04_5  and  C05_6 
REMARK    4  A    between atoms: C09_10  and  C0A_11 
REMARK    5  A    between atoms: C0A_11  and  C0B_12 
REMARK       I    between atoms: C0B_12  and  N0C_13 
REMARK    6  A    between atoms: C0E_15  and  C0F_16 
REMARK    7  A    between atoms: C0F_16  and  C0G_17 
REMARK    8  A    between atoms: C0N_23  and  C0O_24 
REMARK    9  A    between atoms: C0O_24  and  N0P_25 
ROOT
ATOM      1  C02 MOL     1       0.796   9.690 -19.362  1.00  0.00    -0.044 C 
ATOM      2  C03 MOL     1       1.755   9.116 -18.516  1.00  0.00     0.129 C 
ATOM      3  C08 MOL     1       1.860   7.681 -18.313  1.00  0.00    -0.316 C 
ATOM      4  C09 MOL     1       1.075   6.853 -19.093  1.00  0.00     0.109 C 
ATOM      5  C0E MOL     1       0.076   7.343 -19.883  1.00  0.00    -0.064 C 
ATOM      6  C0N MOL     1       0.000   8.740 -20.101  1.00  0.00    -0.120 C 
ENDROOT
BRANCH   5   7
ATOM      7  C0F MOL     1      -0.825   6.366 -20.622  1.00  0.00     0.047 C 
BRANCH   7   8
ATOM      8  C0G MOL     1      -2.155   5.984 -20.030  1.00  0.00     0.171 C 
ATOM      9  C0M MOL     1      -3.367   6.435 -20.592  1.00  0.00    -0.195 C 
ATOM     10  C0K MOL     1      -4.614   6.083 -20.015  1.00  0.00    -0.062 C 
ATOM     11  C0J MOL     1      -4.696   5.434 -18.780  1.00  0.00    -0.135 C 
ATOM     12  C0I MOL     1      -3.451   5.021 -18.219  1.00  0.00    -0.071 C 
ATOM     13  C0H MOL     1      -2.266   5.269 -18.880  1.00  0.00    -0.152 C 
ENDBRANCH   7   8
ENDBRANCH   5   7
BRANCH   6  14
ATOM     14  C0O MOL     1      -1.075   9.349 -21.059  1.00  0.00     0.092 C 
BRANCH  14  15
ATOM     15  N0P MOL     1      -0.688   9.487 -22.500  1.00  0.00    -0.153 N 
ATOM     16  H0Q MOL     1      -0.633   8.583 -22.940  1.00  0.00     0.257 HD
ATOM     17  H0R MOL     1      -1.461   9.939 -22.981  1.00  0.00     0.244 HD
ATOM     18  H0S MOL     1       0.193   9.954 -22.665  1.00  0.00     0.246 HD
ENDBRANCH  14  15
ENDBRANCH   6  14
BRANCH   4  19
ATOM     19  C0A MOL     1       1.438   5.351 -19.055  1.00  0.00    -0.219 C 
BRANCH  19  20
ATOM     20  C0B MOL     1       2.648   4.938 -19.955  1.00  0.00     0.819 C 
ATOM     21  N0C MOL     1       2.409   4.745 -21.216  1.00  0.00    -0.993 N 
ATOM     22  H13 MOL     1       1.457   4.927 -21.523  1.00  0.00     0.395 HD
ATOM     23  H14 MOL     1       3.128   4.398 -21.824  1.00  0.00     0.440 HD
ATOM     24  O0D MOL     1       3.775   4.888 -19.497  1.00  0.00    -0.614 OA
ENDBRANCH  19  20
ENDBRANCH   4  19
BRANCH   1  25
ATOM     25  C01 MOL     1       0.635  11.214 -19.551  1.00  0.00    -0.066 C 
ATOM     26  C00 MOL     1       1.611  11.787 -20.688  1.00  0.00    -0.126 C 
ENDBRANCH   1  25
BRANCH   2  27
ATOM     27  C04 MOL     1       2.707   9.892 -17.634  1.00  0.00    -0.266 C 
BRANCH  27  28
ATOM     28  C05 MOL     1       2.388   9.864 -16.161  1.00  0.00     0.870 C 
ATOM     29  O06 MOL     1       3.076   9.317 -15.321  1.00  0.00    -0.820 OA
ATOM     30  O07 MOL     1       1.369  10.525 -15.763  1.00  0.00    -0.676 OA
ENDBRANCH  27  28
ENDBRANCH   2  27
TORSDOF 9
ENDMDL
MODEL 10
REMARK VINA RESULT:      -5.3     16.024     18.489
REMARK  9 active torsions:
REMARK  status: ('A' for Active; 'I' for Inactive)
REMARK    1  A    between atoms: C01_2  and  C02_3 
REMARK    2  A    between atoms: C03_4  and  C04_5 
REMARK    3  A    between atoms: C04_5  and  C05_6 
REMARK    4  A    between atoms: C09_10  and  C0A_11 
REMARK    5  A    between atoms: C0A_11  and  C0B_12 
REMARK       I    between atoms: C0B_12  and  N0C_13 
REMARK    6  A    between atoms: C0E_15  and  C0F_16 
REMARK    7  A    between atoms: C0F_16  and  C0G_17 
REMARK    8  A    between atoms: C0N_23  and  C0O_24 
REMARK    9  A    between atoms: C0O_24  and  N0P_25 
ROOT
ATOM      1  C02 MOL     1      -3.667   6.934 -20.195  1.00  0.00    -0.044 C 
ATOM      2  C03 MOL     1      -2.318   7.089 -20.541  1.00  0.00     0.129 C 
ATOM      3  C08 MOL     1      -1.891   7.870 -21.689  1.00  0.00    -0.316 C 
ATOM      4  C09 MOL     1      -2.846   8.596 -22.376  1.00  0.00     0.109 C 
ATOM      5  C0E MOL     1      -4.180   8.437 -22.137  1.00  0.00    -0.064 C 
ATOM      6  C0N MOL     1      -4.587   7.701 -20.998  1.00  0.00    -0.120 C 
ENDROOT
BRANCH   5   7
ATOM      7  C0F MOL     1      -5.178   9.180 -23.011  1.00  0.00     0.047 C 
BRANCH   7   8
ATOM      8  C0G MOL     1      -5.736   8.512 -24.238  1.00  0.00     0.171 C 
ATOM      9  C0M MOL     1      -6.895   7.710 -24.177  1.00  0.00    -0.195 C 
ATOM     10  C0K MOL     1      -7.402   7.072 -25.339  1.00  0.00    -0.062 C 
ATOM     11  C0J MOL     1      -6.689   7.058 -26.541  1.00  0.00    -0.135 C 
ATOM     12  C0I MOL     1      -5.502   7.850 -26.561  1.00  0.00    -0.071 C 
ATOM     13  C0H MOL     1      -5.115   8.563 -25.446  1.00  0.00    -0.152 C 
ENDBRANCH   7   8
ENDBRANCH   5   7
BRANCH   6  14
ATOM     14  C0O MOL     1      -6.100   7.554 -20.632  1.00  0.00     0.092 C 
BRANCH  14  15
ATOM     15  N0P MOL     1      -6.593   8.368 -19.475  1.00  0.00    -0.153 N 
ATOM     16  H0Q MOL     1      -5.978   9.148 -19.303  1.00  0.00     0.257 HD
ATOM     17  H0R MOL     1      -7.461   8.810 -19.760  1.00  0.00     0.244 HD
ATOM     18  H0S MOL     1      -6.685   7.864 -18.604  1.00  0.00     0.246 HD
ENDBRANCH  14  15
ENDBRANCH   6  14
BRANCH   4  19
ATOM     19  C0A MOL     1      -2.305   9.634 -23.386  1.00  0.00    -0.219 C 
BRANCH  19  20
ATOM     20  C0B MOL     1      -1.998  11.045 -22.787  1.00  0.00     0.819 C 
ATOM     21  N0C MOL     1      -2.914  11.955 -22.916  1.00  0.00    -0.993 N 
ATOM     22  H13 MOL     1      -3.781  11.657 -23.358  1.00  0.00     0.395 HD
ATOM     23  H14 MOL     1      -2.740  12.900 -22.626  1.00  0.00     0.440 HD
ATOM     24  O0D MOL     1      -0.977  11.242 -22.153  1.00  0.00    -0.614 OA
ENDBRANCH  19  20
ENDBRANCH   4  19
BRANCH   1  25
ATOM     25  C01 MOL     1      -4.143   6.066 -19.009  1.00  0.00    -0.066 C 
ATOM     26  C00 MOL     1      -4.351   4.532 -19.429  1.00  0.00    -0.126 C 
ENDBRANCH   1  25
BRANCH   2  27
ATOM     27  C04 MOL     1      -1.163   6.392 -19.859  1.00  0.00    -0.266 C 
BRANCH  27  28
ATOM     28  C05 MOL     1      -0.612   7.096 -18.644  1.00  0.00     0.870 C 
ATOM     29  O06 MOL     1      -0.530   6.594 -17.540  1.00  0.00    -0.820 OA
ATOM     30  O07 MOL     1      -0.130   8.268 -18.807  1.00  0.00    -0.676 OA
ENDBRANCH  27  28
ENDBRANCH   2  27
TORSDOF 9
ENDMDL
MODEL 11
REMARK VINA RESULT:      -5.3     20.237     23.062
REMARK  9 active torsions:
REMARK  status: ('A' for Active; 'I' for Inactive)
REMARK    1  A    between atoms: C01_2  and  C02_3 
REMARK    2  A    between atoms: C03_4  and  C04_5 
REMARK    3  A    between atoms: C04_5  and  C05_6 
REMARK    4  A    between atoms: C09_10  and  C0A_11 
REMARK    5  A    between atoms: C0A_11  and  C0B_12 
REMARK       I    between atoms: C0B_12  and  N0C_13 
REMARK    6  A    between atoms: C0E_15  and  C0F_16 
REMARK    7  A    between atoms: C0F_16  and  C0G_17 
REMARK    8  A    between atoms: C0N_23  and  C0O_24 
REMARK    9  A    between atoms: C0O_24  and  N0P_25 
ROOT
ATOM      1  C02 MOL     1     -12.350   1.953  11.636  1.00  0.00    -0.044 C 
ATOM      2  C03 MOL     1     -11.263   2.684  11.139  1.00  0.00     0.129 C 
ATOM      3  C08 MOL     1      -9.884   2.314  11.409  1.00  0.00    -0.316 C 
ATOM      4  C09 MOL     1      -9.645   1.120  12.062  1.00  0.00     0.109 C 
ATOM      5  C0E MOL     1     -10.653   0.397  12.632  1.00  0.00    -0.064 C 
ATOM      6  C0N MOL     1     -11.993   0.744  12.338  1.00  0.00    -0.120 C 
ENDROOT
BRANCH   5   7
ATOM      7  C0F MOL     1     -10.303  -0.846  13.436  1.00  0.00     0.047 C 
BRANCH   7   8
ATOM      8  C0G MOL     1     -10.394  -0.812  14.937  1.00  0.00     0.171 C 
ATOM      9  C0M MOL     1     -10.352   0.404  15.650  1.00  0.00    -0.195 C 
ATOM     10  C0K MOL     1     -10.421   0.422  17.068  1.00  0.00    -0.062 C 
ATOM     11  C0J MOL     1     -10.353  -0.752  17.822  1.00  0.00    -0.135 C 
ATOM     12  C0I MOL     1     -10.361  -1.967  17.072  1.00  0.00    -0.071 C 
ATOM     13  C0H MOL     1     -10.428  -1.941  15.695  1.00  0.00    -0.152 C 
ENDBRANCH   7   8
ENDBRANCH   5   7
BRANCH   6  14
ATOM     14  C0O MOL     1     -13.185  -0.098  12.899  1.00  0.00     0.092 C 
BRANCH  14  15
ATOM     15  N0P MOL     1     -13.715   0.301  14.242  1.00  0.00    -0.153 N 
ATOM     16  H0Q MOL     1     -13.722  -0.488  14.867  1.00  0.00     0.257 HD
ATOM     17  H0R MOL     1     -13.039   0.931  14.662  1.00  0.00     0.244 HD
ATOM     18  H0S MOL     1     -14.649   0.687  14.237  1.00  0.00     0.246 HD
ENDBRANCH  14  15
ENDBRANCH   6  14
BRANCH   4  19
ATOM     19  C0A MOL     1      -8.178   0.631  12.056  1.00  0.00    -0.219 C 
BRANCH  19  20
ATOM     20  C0B MOL     1      -7.324   1.111  10.837  1.00  0.00     0.819 C 
ATOM     21  N0C MOL     1      -7.546   0.535   9.695  1.00  0.00    -0.993 N 
ATOM     22  H13 MOL     1      -8.295  -0.153   9.680  1.00  0.00     0.395 HD
ATOM     23  H14 MOL     1      -6.971   0.743   8.899  1.00  0.00     0.440 HD
ATOM     24  O0D MOL     1      -6.551   2.045  10.949  1.00  0.00    -0.614 OA
ENDBRANCH  19  20
ENDBRANCH   4  19
BRANCH   1  25
ATOM     25  C01 MOL     1     -13.822   2.359  11.403  1.00  0.00    -0.066 C 
ATOM     26  C00 MOL     1     -14.353   1.903   9.960  1.00  0.00    -0.126 C 
ENDBRANCH   1  25
BRANCH   2  27
ATOM     27  C04 MOL     1     -11.370   3.984  10.376  1.00  0.00    -0.266 C 
BRANCH  27  28
ATOM     28  C05 MOL     1     -11.621   5.208  11.220  1.00  0.00     0.870 C 
ATOM     29  O06 MOL     1     -10.874   5.604  12.093  1.00  0.00    -0.820 OA
ATOM     30  O07 MOL     1     -12.648   5.916  10.943  1.00  0.00    -0.676 OA
ENDBRANCH  27  28
ENDBRANCH   2  27
TORSDOF 9
ENDMDL
MODEL 12
REMARK VINA RESULT:      -5.2      3.245      6.961
REMARK  9 active torsions:
REMARK  status: ('A' for Active; 'I' for Inactive)
REMARK    1  A    between atoms: C01_2  and  C02_3 
REMARK    2  A    between atoms: C03_4  and  C04_5 
REMARK    3  A    between atoms: C04_5  and  C05_6 
REMARK    4  A    between atoms: C09_10  and  C0A_11 
REMARK    5  A    between atoms: C0A_11  and  C0B_12 
REMARK       I    between atoms: C0B_12  and  N0C_13 
REMARK    6  A    between atoms: C0E_15  and  C0F_16 
REMARK    7  A    between atoms: C0F_16  and  C0G_17 
REMARK    8  A    between atoms: C0N_23  and  C0O_24 
REMARK    9  A    between atoms: C0O_24  and  N0P_25 
ROOT
ATOM      1  C02 MOL     1      -0.171   7.175  -3.817  1.00  0.00    -0.044 C 
ATOM      2  C03 MOL     1      -0.567   8.430  -4.300  1.00  0.00     0.129 C 
ATOM      3  C08 MOL     1       0.207   9.170  -5.281  1.00  0.00    -0.316 C 
ATOM      4  C09 MOL     1       1.298   8.547  -5.856  1.00  0.00     0.109 C 
ATOM      5  C0E MOL     1       1.779   7.359  -5.385  1.00  0.00    -0.064 C 
ATOM      6  C0N MOL     1       1.003   6.629  -4.454  1.00  0.00    -0.120 C 
ENDROOT
BRANCH   5   7
ATOM      7  C0F MOL     1       3.053   6.790  -5.989  1.00  0.00     0.047 C 
BRANCH   7   8
ATOM      8  C0G MOL     1       2.980   5.578  -6.878  1.00  0.00     0.171 C 
ATOM      9  C0M MOL     1       1.939   5.415  -7.815  1.00  0.00    -0.195 C 
ATOM     10  C0K MOL     1       1.870   4.259  -8.636  1.00  0.00    -0.062 C 
ATOM     11  C0J MOL     1       2.713   3.162  -8.433  1.00  0.00    -0.135 C 
ATOM     12  C0I MOL     1       3.734   3.344  -7.452  1.00  0.00    -0.071 C 
ATOM     13  C0H MOL     1       3.847   4.536  -6.769  1.00  0.00    -0.152 C 
ENDBRANCH   7   8
ENDBRANCH   5   7
BRANCH   6  14
ATOM     14  C0O MOL     1       1.467   5.227  -3.941  1.00  0.00     0.092 C 
BRANCH  14  15
ATOM     15  N0P MOL     1       2.690   5.199  -3.077  1.00  0.00    -0.153 N 
ATOM     16  H0Q MOL     1       3.476   5.597  -3.563  1.00  0.00     0.257 HD
ATOM     17  H0R MOL     1       2.535   5.845  -2.308  1.00  0.00     0.244 HD
ATOM     18  H0S MOL     1       2.969   4.282  -2.758  1.00  0.00     0.246 HD
ENDBRANCH  14  15
ENDBRANCH   6  14
BRANCH   4  19
ATOM     19  C0A MOL     1       1.899   9.249  -7.095  1.00  0.00    -0.219 C 
BRANCH  19  20
ATOM     20  C0B MOL     1       1.828  10.811  -7.072  1.00  0.00     0.819 C 
ATOM     21  N0C MOL     1       1.011  11.380  -7.904  1.00  0.00    -0.993 N 
ATOM     22  H13 MOL     1       0.445  10.754  -8.472  1.00  0.00     0.395 HD
ATOM     23  H14 MOL     1       0.985  12.379  -7.991  1.00  0.00     0.440 HD
ATOM     24  O0D MOL     1       2.454  11.448  -6.244  1.00  0.00    -0.614 OA
ENDBRANCH  19  20
ENDBRANCH   4  19
BRANCH   1  25
ATOM     25  C01 MOL     1      -0.953   6.397  -2.737  1.00  0.00    -0.066 C 
ATOM     26  C00 MOL     1      -2.097   5.469  -3.372  1.00  0.00    -0.126 C 
ENDBRANCH   1  25
BRANCH   2  27
ATOM     27  C04 MOL     1      -1.757   9.215  -3.797  1.00  0.00    -0.266 C 
BRANCH  27  28
ATOM     28  C05 MOL     1      -1.562   9.899  -2.467  1.00  0.00     0.870 C 
ATOM     29  O06 MOL     1      -0.991  10.963  -2.321  1.00  0.00    -0.820 OA
ATOM     30  O07 MOL     1      -2.101   9.362  -1.440  1.00  0.00    -0.676 OA
ENDBRANCH  27  28
ENDBRANCH   2  27
TORSDOF 9
ENDMDL
MODEL 13
REMARK VINA RESULT:      -5.2      2.808      6.934
REMARK  9 active torsions:
REMARK  status: ('A' for Active; 'I' for Inactive)
REMARK    1  A    between atoms: C01_2  and  C02_3 
REMARK    2  A    between atoms: C03_4  and  C04_5 
REMARK    3  A    between atoms: C04_5  and  C05_6 
REMARK    4  A    between atoms: C09_10  and  C0A_11 
REMARK    5  A    between atoms: C0A_11  and  C0B_12 
REMARK       I    between atoms: C0B_12  and  N0C_13 
REMARK    6  A    between atoms: C0E_15  and  C0F_16 
REMARK    7  A    between atoms: C0F_16  and  C0G_17 
REMARK    8  A    between atoms: C0N_23  and  C0O_24 
REMARK    9  A    between atoms: C0O_24  and  N0P_25 
ROOT
ATOM      1  C02 MOL     1      -0.519   6.511  -3.304  1.00  0.00    -0.044 C 
ATOM      2  C03 MOL     1      -0.215   7.880  -3.303  1.00  0.00     0.129 C 
ATOM      3  C08 MOL     1       1.044   8.401  -3.807  1.00  0.00    -0.316 C 
ATOM      4  C09 MOL     1       1.909   7.524  -4.434  1.00  0.00     0.109 C 
ATOM      5  C0E MOL     1       1.708   6.174  -4.409  1.00  0.00    -0.064 C 
ATOM      6  C0N MOL     1       0.466   5.676  -3.948  1.00  0.00    -0.120 C 
ENDROOT
BRANCH   5   7
ATOM      7  C0F MOL     1       2.761   5.262  -5.019  1.00  0.00     0.047 C 
BRANCH   7   8
ATOM      8  C0G MOL     1       2.627   4.822  -6.451  1.00  0.00     0.171 C 
ATOM      9  C0M MOL     1       3.482   3.846  -7.004  1.00  0.00    -0.195 C 
ATOM     10  C0K MOL     1       3.358   3.452  -8.362  1.00  0.00    -0.062 C 
ATOM     11  C0J MOL     1       2.517   4.129  -9.250  1.00  0.00    -0.135 C 
ATOM     12  C0I MOL     1       1.689   5.135  -8.667  1.00  0.00    -0.071 C 
ATOM     13  C0H MOL     1       1.748   5.396  -7.315  1.00  0.00    -0.152 C 
ENDBRANCH   7   8
ENDBRANCH   5   7
BRANCH   6  14
ATOM     14  C0O MOL     1       0.152   4.145  -3.971  1.00  0.00     0.092 C 
BRANCH  14  15
ATOM     15  N0P MOL     1      -0.606   3.633  -5.158  1.00  0.00    -0.153 N 
ATOM     16  H0Q MOL     1      -0.334   4.128  -5.992  1.00  0.00     0.257 HD
ATOM     17  H0R MOL     1      -0.293   2.683  -5.333  1.00  0.00     0.244 HD
ATOM     18  H0S MOL     1      -1.611   3.700  -5.086  1.00  0.00     0.246 HD
ENDBRANCH  14  15
ENDBRANCH   6  14
BRANCH   4  19
ATOM     19  C0A MOL     1       3.078   8.172  -5.210  1.00  0.00    -0.219 C 
BRANCH  19  20
ATOM     20  C0B MOL     1       2.659   9.232  -6.280  1.00  0.00     0.819 C 
ATOM     21  N0C MOL     1       3.170  10.419  -6.171  1.00  0.00    -0.993 N 
ATOM     22  H13 MOL     1       3.844  10.547  -5.419  1.00  0.00     0.395 HD
ATOM     23  H14 MOL     1       2.873  11.160  -6.778  1.00  0.00     0.440 HD
ATOM     24  O0D MOL     1       1.950   8.918  -7.220  1.00  0.00    -0.614 OA
ENDBRANCH  19  20
ENDBRANCH   4  19
BRANCH   1  25
ATOM     25  C01 MOL     1      -1.830   5.934  -2.727  1.00  0.00    -0.066 C 
ATOM     26  C00 MOL     1      -3.032   5.987  -3.788  1.00  0.00    -0.126 C 
ENDBRANCH   1  25
BRANCH   2  27
ATOM     27  C04 MOL     1      -1.079   8.958  -2.690  1.00  0.00    -0.266 C 
BRANCH  27  28
ATOM     28  C05 MOL     1      -1.799   9.844  -3.675  1.00  0.00     0.870 C 
ATOM     29  O06 MOL     1      -1.388  10.924  -4.053  1.00  0.00    -0.820 OA
ATOM     30  O07 MOL     1      -2.871   9.393  -4.203  1.00  0.00    -0.676 OA
ENDBRANCH  27  28
ENDBRANCH   2  27
TORSDOF 9
ENDMDL
MODEL 14
REMARK VINA RESULT:      -5.1     20.667     22.786
REMARK  9 active torsions:
REMARK  status: ('A' for Active; 'I' for Inactive)
REMARK    1  A    between atoms: C01_2  and  C02_3 
REMARK    2  A    between atoms: C03_4  and  C04_5 
REMARK    3  A    between atoms: C04_5  and  C05_6 
REMARK    4  A    between atoms: C09_10  and  C0A_11 
REMARK    5  A    between atoms: C0A_11  and  C0B_12 
REMARK       I    between atoms: C0B_12  and  N0C_13 
REMARK    6  A    between atoms: C0E_15  and  C0F_16 
REMARK    7  A    between atoms: C0F_16  and  C0G_17 
REMARK    8  A    between atoms: C0N_23  and  C0O_24 
REMARK    9  A    between atoms: C0O_24  and  N0P_25 
ROOT
ATOM      1  C02 MOL     1     -15.704   2.460 -18.231  1.00  0.00    -0.044 C 
ATOM      2  C03 MOL     1     -15.362   3.460 -19.151  1.00  0.00     0.129 C 
ATOM      3  C08 MOL     1     -15.987   4.772 -19.149  1.00  0.00    -0.316 C 
ATOM      4  C09 MOL     1     -16.848   5.082 -18.113  1.00  0.00     0.109 C 
ATOM      5  C0E MOL     1     -17.277   4.138 -17.226  1.00  0.00    -0.064 C 
ATOM      6  C0N MOL     1     -16.640   2.874 -17.213  1.00  0.00    -0.120 C 
ENDROOT
BRANCH   5   7
ATOM      7  C0F MOL     1     -18.314   4.524 -16.184  1.00  0.00     0.047 C 
BRANCH   7   8
ATOM      8  C0G MOL     1     -19.759   4.167 -16.402  1.00  0.00     0.171 C 
ATOM      9  C0M MOL     1     -20.491   3.441 -15.441  1.00  0.00    -0.195 C 
ATOM     10  C0K MOL     1     -21.849   3.095 -15.666  1.00  0.00    -0.062 C 
ATOM     11  C0J MOL     1     -22.463   3.295 -16.905  1.00  0.00    -0.135 C 
ATOM     12  C0I MOL     1     -21.684   4.002 -17.870  1.00  0.00    -0.071 C 
ATOM     13  C0H MOL     1     -20.413   4.437 -17.564  1.00  0.00    -0.152 C 
ENDBRANCH   7   8
ENDBRANCH   5   7
BRANCH   6  14
ATOM     14  C0O MOL     1     -17.036   1.782 -16.167  1.00  0.00     0.092 C 
BRANCH  14  15
ATOM     15  N0P MOL     1     -18.178   0.884 -16.533  1.00  0.00    -0.153 N 
ATOM     16  H0Q MOL     1     -18.261   0.807 -17.533  1.00  0.00     0.257 HD
ATOM     17  H0R MOL     1     -17.931  -0.057 -16.242  1.00  0.00     0.244 HD
ATOM     18  H0S MOL     1     -19.080   1.171 -16.179  1.00  0.00     0.246 HD
ENDBRANCH  14  15
ENDBRANCH   6  14
BRANCH   4  19
ATOM     19  C0A MOL     1     -17.244   6.572 -17.992  1.00  0.00    -0.219 C 
BRANCH  19  20
ATOM     20  C0B MOL     1     -16.060   7.553 -17.709  1.00  0.00     0.819 C 
ATOM     21  N0C MOL     1     -15.146   7.154 -16.878  1.00  0.00    -0.993 N 
ATOM     22  H13 MOL     1     -15.254   6.210 -16.515  1.00  0.00     0.395 HD
ATOM     23  H14 MOL     1     -14.409   7.773 -16.596  1.00  0.00     0.440 HD
ATOM     24  O0D MOL     1     -15.967   8.605 -18.315  1.00  0.00    -0.614 OA
ENDBRANCH  19  20
ENDBRANCH   4  19
BRANCH   1  25
ATOM     25  C01 MOL     1     -15.088   1.044 -18.249  1.00  0.00    -0.066 C 
ATOM     26  C00 MOL     1     -15.853   0.067 -19.265  1.00  0.00    -0.126 C 
ENDBRANCH   1  25
BRANCH   2  27
ATOM     27  C04 MOL     1     -14.410   3.280 -20.311  1.00  0.00    -0.266 C 
BRANCH  27  28
ATOM     28  C05 MOL     1     -12.996   3.740 -20.061  1.00  0.00     0.870 C 
ATOM     29  O06 MOL     1     -12.442   3.697 -18.980  1.00  0.00    -0.820 OA
ATOM     30  O07 MOL     1     -12.312   4.127 -21.069  1.00  0.00    -0.676 OA
ENDBRANCH  27  28
ENDBRANCH   2  27
TORSDOF 9
ENDMDL
MODEL 15
REMARK VINA RESULT:      -5.1     25.765     28.307
REMARK  9 active torsions:
REMARK  status: ('A' for Active; 'I' for Inactive)
REMARK    1  A    between atoms: C01_2  and  C02_3 
REMARK    2  A    between atoms: C03_4  and  C04_5 
REMARK    3  A    between atoms: C04_5  and  C05_6 
REMARK    4  A    between atoms: C09_10  and  C0A_11 
REMARK    5  A    between atoms: C0A_11  and  C0B_12 
REMARK       I    between atoms: C0B_12  and  N0C_13 
REMARK    6  A    between atoms: C0E_15  and  C0F_16 
REMARK    7  A    between atoms: C0F_16  and  C0G_17 
REMARK    8  A    between atoms: C0N_23  and  C0O_24 
REMARK    9  A    between atoms: C0O_24  and  N0P_25 
ROOT
ATOM      1  C02 MOL     1     -27.416   4.508  -8.685  1.00  0.00    -0.044 C 
ATOM      2  C03 MOL     1     -27.837   5.620  -9.428  1.00  0.00     0.129 C 
ATOM      3  C08 MOL     1     -26.995   6.259 -10.425  1.00  0.00    -0.316 C 
ATOM      4  C09 MOL     1     -25.792   5.658 -10.744  1.00  0.00     0.109 C 
ATOM      5  C0E MOL     1     -25.291   4.619 -10.015  1.00  0.00    -0.064 C 
ATOM      6  C0N MOL     1     -26.129   3.981  -9.069  1.00  0.00    -0.120 C 
ENDROOT
BRANCH   5   7
ATOM      7  C0F MOL     1     -23.908   4.084 -10.350  1.00  0.00     0.047 C 
BRANCH   7   8
ATOM      8  C0G MOL     1     -23.771   2.793 -11.111  1.00  0.00     0.171 C 
ATOM      9  C0M MOL     1     -24.681   2.439 -12.128  1.00  0.00    -0.195 C 
ATOM     10  C0K MOL     1     -24.553   1.210 -12.826  1.00  0.00    -0.062 C 
ATOM     11  C0J MOL     1     -23.644   0.227 -12.425  1.00  0.00    -0.135 C 
ATOM     12  C0I MOL     1     -22.760   0.602 -11.368  1.00  0.00    -0.071 C 
ATOM     13  C0H MOL     1     -22.832   1.859 -10.805  1.00  0.00    -0.152 C 
ENDBRANCH   7   8
ENDBRANCH   5   7
BRANCH   6  14
ATOM     14  C0O MOL     1     -25.634   2.736  -8.263  1.00  0.00     0.092 C 
BRANCH  14  15
ATOM     15  N0P MOL     1     -24.846   3.011  -7.020  1.00  0.00    -0.153 N 
ATOM     16  H0Q MOL     1     -23.912   2.645  -7.105  1.00  0.00     0.257 HD
ATOM     17  H0R MOL     1     -24.703   4.015  -6.965  1.00  0.00     0.244 HD
ATOM     18  H0S MOL     1     -25.239   2.632  -6.170  1.00  0.00     0.246 HD
ENDBRANCH  14  15
ENDBRANCH   6  14
BRANCH   4  19
ATOM     19  C0A MOL     1     -25.084   6.200 -12.007  1.00  0.00    -0.219 C 
BRANCH  19  20
ATOM     20  C0B MOL     1     -25.943   6.173 -13.313  1.00  0.00     0.819 C 
ATOM     21  N0C MOL     1     -26.172   7.310 -13.895  1.00  0.00    -0.993 N 
ATOM     22  H13 MOL     1     -25.729   8.124 -13.475  1.00  0.00     0.395 HD
ATOM     23  H14 MOL     1     -26.786   7.363 -14.687  1.00  0.00     0.440 HD
ATOM     24  O0D MOL     1     -26.301   5.115 -13.799  1.00  0.00    -0.614 OA
ENDBRANCH  19  20
ENDBRANCH   4  19
BRANCH   1  25
ATOM     25  C01 MOL     1     -28.276   3.848  -7.586  1.00  0.00    -0.066 C 
ATOM     26  C00 MOL     1     -29.326   2.796  -8.192  1.00  0.00    -0.126 C 
ENDBRANCH   1  25
BRANCH   2  27
ATOM     27  C04 MOL     1     -29.140   6.357  -9.219  1.00  0.00    -0.266 C 
BRANCH  27  28
ATOM     28  C05 MOL     1     -29.010   7.840  -8.973  1.00  0.00     0.870 C 
ATOM     29  O06 MOL     1     -28.353   8.330  -8.076  1.00  0.00    -0.820 OA
ATOM     30  O07 MOL     1     -29.564   8.630  -9.811  1.00  0.00    -0.676 OA
ENDBRANCH  27  28
ENDBRANCH   2  27
TORSDOF 9
ENDMDL
MODEL 16
REMARK VINA RESULT:      -5.0      4.260      6.283
REMARK  9 active torsions:
REMARK  status: ('A' for Active; 'I' for Inactive)
REMARK    1  A    between atoms: C01_2  and  C02_3 
REMARK    2  A    between atoms: C03_4  and  C04_5 
REMARK    3  A    between atoms: C04_5  and  C05_6 
REMARK    4  A    between atoms: C09_10  and  C0A_11 
REMARK    5  A    between atoms: C0A_11  and  C0B_12 
REMARK       I    between atoms: C0B_12  and  N0C_13 
REMARK    6  A    between atoms: C0E_15  and  C0F_16 
REMARK    7  A    between atoms: C0F_16  and  C0G_17 
REMARK    8  A    between atoms: C0N_23  and  C0O_24 
REMARK    9  A    between atoms: C0O_24  and  N0P_25 
ROOT
ATOM      1  C02 MOL     1       3.725  11.111  -1.206  1.00  0.00    -0.044 C 
ATOM      2  C03 MOL     1       3.108  11.486  -2.407  1.00  0.00     0.129 C 
ATOM      3  C08 MOL     1       1.679  11.348  -2.628  1.00  0.00    -0.316 C 
ATOM      4  C09 MOL     1       0.888  10.963  -1.562  1.00  0.00     0.109 C 
ATOM      5  C0E MOL     1       1.427  10.518  -0.390  1.00  0.00    -0.064 C 
ATOM      6  C0N MOL     1       2.815  10.685  -0.170  1.00  0.00    -0.120 C 
ENDROOT
BRANCH   5   7
ATOM      7  C0F MOL     1       0.499   9.999   0.697  1.00  0.00     0.047 C 
BRANCH   7   8
ATOM      8  C0G MOL     1      -0.013  10.941   1.752  1.00  0.00     0.171 C 
ATOM      9  C0M MOL     1       0.120  12.339   1.618  1.00  0.00    -0.195 C 
ATOM     10  C0K MOL     1      -0.351  13.217   2.629  1.00  0.00    -0.062 C 
ATOM     11  C0J MOL     1      -0.798  12.743   3.865  1.00  0.00    -0.135 C 
ATOM     12  C0I MOL     1      -0.889  11.323   3.983  1.00  0.00    -0.071 C 
ATOM     13  C0H MOL     1      -0.544  10.507   2.926  1.00  0.00    -0.152 C 
ENDBRANCH   7   8
ENDBRANCH   5   7
BRANCH   6  14
ATOM     14  C0O MOL     1       3.472  10.266   1.186  1.00  0.00     0.092 C 
BRANCH  14  15
ATOM     15  N0P MOL     1       3.585  11.330   2.235  1.00  0.00    -0.153 N 
ATOM     16  H0Q MOL     1       2.678  11.712   2.450  1.00  0.00     0.257 HD
ATOM     17  H0R MOL     1       3.863  10.877   3.100  1.00  0.00     0.244 HD
ATOM     18  H0S MOL     1       4.186  12.106   1.996  1.00  0.00     0.246 HD
ENDBRANCH  14  15
ENDBRANCH   6  14
BRANCH   4  19
ATOM     19  C0A MOL     1      -0.637  11.123  -1.763  1.00  0.00    -0.219 C 
BRANCH  19  20
ATOM     20  C0B MOL     1      -1.355   9.890  -2.401  1.00  0.00     0.819 C 
ATOM     21  N0C MOL     1      -1.387   9.827  -3.697  1.00  0.00    -0.993 N 
ATOM     22  H13 MOL     1      -0.896  10.568  -4.192  1.00  0.00     0.395 HD
ATOM     23  H14 MOL     1      -1.905   9.104  -4.161  1.00  0.00     0.440 HD
ATOM     24  O0D MOL     1      -1.785   8.991  -1.701  1.00  0.00    -0.614 OA
ENDBRANCH  19  20
ENDBRANCH   4  19
BRANCH   1  25
ATOM     25  C01 MOL     1       5.248  11.201  -0.970  1.00  0.00    -0.066 C 
ATOM     26  C00 MOL     1       6.021   9.907  -1.517  1.00  0.00    -0.126 C 
ENDBRANCH   1  25
BRANCH   2  27
ATOM     27  C04 MOL     1       3.837  11.962  -3.643  1.00  0.00    -0.266 C 
BRANCH  27  28
ATOM     28  C05 MOL     1       3.816  11.009  -4.811  1.00  0.00     0.870 C 
ATOM     29  O06 MOL     1       4.181   9.851  -4.757  1.00  0.00    -0.820 OA
ATOM     30  O07 MOL     1       3.307  11.426  -5.906  1.00  0.00    -0.676 OA
ENDBRANCH  27  28
ENDBRANCH   2  27
TORSDOF 9
ENDMDL
MODEL 17
REMARK VINA RESULT:      -5.0     18.184     20.672
REMARK  9 active torsions:
REMARK  status: ('A' for Active; 'I' for Inactive)
REMARK    1  A    between atoms: C01_2  and  C02_3 
REMARK    2  A    between atoms: C03_4  and  C04_5 
REMARK    3  A    between atoms: C04_5  and  C05_6 
REMARK    4  A    between atoms: C09_10  and  C0A_11 
REMARK    5  A    between atoms: C0A_11  and  C0B_12 
REMARK       I    between atoms: C0B_12  and  N0C_13 
REMARK    6  A    between atoms: C0E_15  and  C0F_16 
REMARK    7  A    between atoms: C0F_16  and  C0G_17 
REMARK    8  A    between atoms: C0N_23  and  C0O_24 
REMARK    9  A    between atoms: C0O_24  and  N0P_25 
ROOT
ATOM      1  C02 MOL     1      -4.945   8.394 -22.150  1.00  0.00    -0.044 C 
ATOM      2  C03 MOL     1      -3.807   9.175 -21.910  1.00  0.00     0.129 C 
ATOM      3  C08 MOL     1      -3.095   9.866 -22.971  1.00  0.00    -0.316 C 
ATOM      4  C09 MOL     1      -3.648   9.861 -24.238  1.00  0.00     0.109 C 
ATOM      5  C0E MOL     1      -4.711   9.067 -24.555  1.00  0.00    -0.064 C 
ATOM      6  C0N MOL     1      -5.419   8.423 -23.512  1.00  0.00    -0.120 C 
ENDROOT
BRANCH   5   7
ATOM      7  C0F MOL     1      -5.193   9.023 -25.997  1.00  0.00     0.047 C 
BRANCH   7   8
ATOM      8  C0G MOL     1      -4.859   7.836 -26.859  1.00  0.00     0.171 C 
ATOM      9  C0M MOL     1      -5.861   6.953 -27.315  1.00  0.00    -0.195 C 
ATOM     10  C0K MOL     1      -5.532   5.827 -28.113  1.00  0.00    -0.062 C 
ATOM     11  C0J MOL     1      -4.206   5.441 -28.330  1.00  0.00    -0.135 C 
ATOM     12  C0I MOL     1      -3.215   6.335 -27.825  1.00  0.00    -0.071 C 
ATOM     13  C0H MOL     1      -3.581   7.491 -27.169  1.00  0.00    -0.152 C 
ENDBRANCH   7   8
ENDBRANCH   5   7
BRANCH   6  14
ATOM     14  C0O MOL     1      -6.692   7.566 -23.811  1.00  0.00     0.092 C 
BRANCH  14  15
ATOM     15  N0P MOL     1      -7.977   8.314 -23.996  1.00  0.00    -0.153 N 
ATOM     16  H0Q MOL     1      -7.934   8.892 -24.819  1.00  0.00     0.257 HD
ATOM     17  H0R MOL     1      -8.697   7.634 -24.220  1.00  0.00     0.244 HD
ATOM     18  H0S MOL     1      -8.240   8.912 -23.225  1.00  0.00     0.246 HD
ENDBRANCH  14  15
ENDBRANCH   6  14
BRANCH   4  19
ATOM     19  C0A MOL     1      -3.022  10.849 -25.249  1.00  0.00    -0.219 C 
BRANCH  19  20
ATOM     20  C0B MOL     1      -3.252  12.362 -24.927  1.00  0.00     0.819 C 
ATOM     21  N0C MOL     1      -4.400  12.870 -25.255  1.00  0.00    -0.993 N 
ATOM     22  H13 MOL     1      -5.076  12.223 -25.654  1.00  0.00     0.395 HD
ATOM     23  H14 MOL     1      -4.572  13.852 -25.149  1.00  0.00     0.440 HD
ATOM     24  O0D MOL     1      -2.414  13.000 -24.316  1.00  0.00    -0.614 OA
ENDBRANCH  19  20
ENDBRANCH   4  19
BRANCH   1  25
ATOM     25  C01 MOL     1      -5.685   7.610 -21.043  1.00  0.00    -0.066 C 
ATOM     26  C00 MOL     1      -5.004   6.187 -20.753  1.00  0.00    -0.126 C 
ENDBRANCH   1  25
BRANCH   2  27
ATOM     27  C04 MOL     1      -3.115   9.309 -20.573  1.00  0.00    -0.266 C 
BRANCH  27  28
ATOM     28  C05 MOL     1      -1.740   8.693 -20.494  1.00  0.00     0.870 C 
ATOM     29  O06 MOL     1      -0.755   9.267 -20.074  1.00  0.00    -0.820 OA
ATOM     30  O07 MOL     1      -1.624   7.462 -20.818  1.00  0.00    -0.676 OA
ENDBRANCH  27  28
ENDBRANCH   2  27
TORSDOF 9
ENDMDL
MODEL 18
REMARK VINA RESULT:      -4.9      3.186      6.059
REMARK  9 active torsions:
REMARK  status: ('A' for Active; 'I' for Inactive)
REMARK    1  A    between atoms: C01_2  and  C02_3 
REMARK    2  A    between atoms: C03_4  and  C04_5 
REMARK    3  A    between atoms: C04_5  and  C05_6 
REMARK    4  A    between atoms: C09_10  and  C0A_11 
REMARK    5  A    between atoms: C0A_11  and  C0B_12 
REMARK       I    between atoms: C0B_12  and  N0C_13 
REMARK    6  A    between atoms: C0E_15  and  C0F_16 
REMARK    7  A    between atoms: C0F_16  and  C0G_17 
REMARK    8  A    between atoms: C0N_23  and  C0O_24 
REMARK    9  A    between atoms: C0O_24  and  N0P_25 
ROOT
ATOM      1  C02 MOL     1       0.973  10.853  -2.774  1.00  0.00    -0.044 C 
ATOM      2  C03 MOL     1       0.056  10.766  -3.830  1.00  0.00     0.129 C 
ATOM      3  C08 MOL     1       0.431  10.306  -5.156  1.00  0.00    -0.316 C 
ATOM      4  C09 MOL     1       1.708   9.807  -5.336  1.00  0.00     0.109 C 
ATOM      5  C0E MOL     1       2.669   9.926  -4.374  1.00  0.00    -0.064 C 
ATOM      6  C0N MOL     1       2.289  10.344  -3.076  1.00  0.00    -0.120 C 
ENDROOT
BRANCH   5   7
ATOM      7  C0F MOL     1       4.083   9.461  -4.685  1.00  0.00     0.047 C 
BRANCH   7   8
ATOM      8  C0G MOL     1       5.086  10.439  -5.233  1.00  0.00     0.171 C 
ATOM      9  C0M MOL     1       6.097  10.991  -4.420  1.00  0.00    -0.195 C 
ATOM     10  C0K MOL     1       7.027  11.926  -4.945  1.00  0.00    -0.062 C 
ATOM     11  C0J MOL     1       6.877  12.474  -6.222  1.00  0.00    -0.135 C 
ATOM     12  C0I MOL     1       5.822  11.922  -7.008  1.00  0.00    -0.071 C 
ATOM     13  C0H MOL     1       5.023  10.917  -6.505  1.00  0.00    -0.152 C 
ENDBRANCH   7   8
ENDBRANCH   5   7
BRANCH   6  14
ATOM     14  C0O MOL     1       3.334  10.422  -1.915  1.00  0.00     0.092 C 
BRANCH  14  15
ATOM     15  N0P MOL     1       3.460   9.210  -1.044  1.00  0.00    -0.153 N 
ATOM     16  H0Q MOL     1       2.808   8.499  -1.330  1.00  0.00     0.257 HD
ATOM     17  H0R MOL     1       4.366   8.791  -1.233  1.00  0.00     0.244 HD
ATOM     18  H0S MOL     1       3.310   9.374  -0.058  1.00  0.00     0.246 HD
ENDBRANCH  14  15
ENDBRANCH   6  14
BRANCH   4  19
ATOM     19  C0A MOL     1       1.957   9.061  -6.666  1.00  0.00    -0.219 C 
BRANCH  19  20
ATOM     20  C0B MOL     1       1.773   7.509  -6.601  1.00  0.00     0.819 C 
ATOM     21  N0C MOL     1       0.572   7.064  -6.393  1.00  0.00    -0.993 N 
ATOM     22  H13 MOL     1      -0.161   7.766  -6.337  1.00  0.00     0.395 HD
ATOM     23  H14 MOL     1       0.408   6.083  -6.259  1.00  0.00     0.440 HD
ATOM     24  O0D MOL     1       2.709   6.763  -6.825  1.00  0.00    -0.614 OA
ENDBRANCH  19  20
ENDBRANCH   4  19
BRANCH   1  25
ATOM     25  C01 MOL     1       0.604  11.388  -1.373  1.00  0.00    -0.066 C 
ATOM     26  C00 MOL     1       0.014  10.237  -0.424  1.00  0.00    -0.126 C 
ENDBRANCH   1  25
BRANCH   2  27
ATOM     27  C04 MOL     1      -1.381  11.233  -3.770  1.00  0.00    -0.266 C 
BRANCH  27  28
ATOM     28  C05 MOL     1      -2.414  10.136  -3.707  1.00  0.00     0.870 C 
ATOM     29  O06 MOL     1      -3.416  10.099  -4.394  1.00  0.00    -0.820 OA
ATOM     30  O07 MOL     1      -2.177   9.144  -2.937  1.00  0.00    -0.676 OA
ENDBRANCH  27  28
ENDBRANCH   2  27
TORSDOF 9
ENDMDL
MODEL 19
REMARK VINA RESULT:      -4.9     16.879     19.085
REMARK  9 active torsions:
REMARK  status: ('A' for Active; 'I' for Inactive)
REMARK    1  A    between atoms: C01_2  and  C02_3 
REMARK    2  A    between atoms: C03_4  and  C04_5 
REMARK    3  A    between atoms: C04_5  and  C05_6 
REMARK    4  A    between atoms: C09_10  and  C0A_11 
REMARK    5  A    between atoms: C0A_11  and  C0B_12 
REMARK       I    between atoms: C0B_12  and  N0C_13 
REMARK    6  A    between atoms: C0E_15  and  C0F_16 
REMARK    7  A    between atoms: C0F_16  and  C0G_17 
REMARK    8  A    between atoms: C0N_23  and  C0O_24 
REMARK    9  A    between atoms: C0O_24  and  N0P_25 
ROOT
ATOM      1  C02 MOL     1      -5.474   8.561 -24.240  1.00  0.00    -0.044 C 
ATOM      2  C03 MOL     1      -4.360   9.266 -24.717  1.00  0.00     0.129 C 
ATOM      3  C08 MOL     1      -3.326   9.782 -23.837  1.00  0.00    -0.316 C 
ATOM      4  C09 MOL     1      -3.379   9.442 -22.499  1.00  0.00     0.109 C 
ATOM      5  C0E MOL     1      -4.466   8.820 -21.957  1.00  0.00    -0.064 C 
ATOM      6  C0N MOL     1      -5.453   8.291 -22.823  1.00  0.00    -0.120 C 
ENDROOT
BRANCH   5   7
ATOM      7  C0F MOL     1      -4.506   8.582 -20.455  1.00  0.00     0.047 C 
BRANCH   7   8
ATOM      8  C0G MOL     1      -4.062   7.256 -19.899  1.00  0.00     0.171 C 
ATOM      9  C0M MOL     1      -4.970   6.382 -19.267  1.00  0.00    -0.195 C 
ATOM     10  C0K MOL     1      -4.535   5.142 -18.730  1.00  0.00    -0.062 C 
ATOM     11  C0J MOL     1      -3.180   4.814 -18.642  1.00  0.00    -0.135 C 
ATOM     12  C0I MOL     1      -2.282   5.736 -19.259  1.00  0.00    -0.071 C 
ATOM     13  C0H MOL     1      -2.759   6.866 -19.888  1.00  0.00    -0.152 C 
ENDBRANCH   7   8
ENDBRANCH   5   7
BRANCH   6  14
ATOM     14  C0O MOL     1      -6.679   7.500 -22.261  1.00  0.00     0.092 C 
BRANCH  14  15
ATOM     15  N0P MOL     1      -6.681   6.019 -22.483  1.00  0.00    -0.153 N 
ATOM     16  H0Q MOL     1      -6.229   5.791 -23.353  1.00  0.00     0.257 HD
ATOM     17  H0R MOL     1      -6.073   5.605 -21.783  1.00  0.00     0.244 HD
ATOM     18  H0S MOL     1      -7.596   5.589 -22.500  1.00  0.00     0.246 HD
ENDBRANCH  14  15
ENDBRANCH   6  14
BRANCH   4  19
ATOM     19  C0A MOL     1      -2.110   9.758 -21.673  1.00  0.00    -0.219 C 
BRANCH  19  20
ATOM     20  C0B MOL     1      -0.777   9.193 -22.264  1.00  0.00     0.819 C 
ATOM     21  N0C MOL     1       0.162  10.048 -22.530  1.00  0.00    -0.993 N 
ATOM     22  H13 MOL     1      -0.033  11.016 -22.285  1.00  0.00     0.395 HD
ATOM     23  H14 MOL     1       1.006   9.754 -22.986  1.00  0.00     0.440 HD
ATOM     24  O0D MOL     1      -0.609   7.993 -22.381  1.00  0.00    -0.614 OA
ENDBRANCH  19  20
ENDBRANCH   4  19
BRANCH   1  25
ATOM     25  C01 MOL     1      -6.609   8.049 -25.154  1.00  0.00    -0.066 C 
ATOM     26  C00 MOL     1      -7.827   9.089 -25.243  1.00  0.00    -0.126 C 
ENDBRANCH   1  25
BRANCH   2  27
ATOM     27  C04 MOL     1      -4.146   9.675 -26.156  1.00  0.00    -0.266 C 
BRANCH  27  28
ATOM     28  C05 MOL     1      -4.817  10.961 -26.567  1.00  0.00     0.870 C 
ATOM     29  O06 MOL     1      -5.424  11.691 -25.807  1.00  0.00    -0.820 OA
ATOM     30  O07 MOL     1      -4.671  11.346 -27.777  1.00  0.00    -0.676 OA
ENDBRANCH  27  28
ENDBRANCH   2  27
TORSDOF 9
ENDMDL
MODEL 20
REMARK VINA RESULT:      -4.9     14.015     17.120
REMARK  9 active torsions:
REMARK  status: ('A' for Active; 'I' for Inactive)
REMARK    1  A    between atoms: C01_2  and  C02_3 
REMARK    2  A    between atoms: C03_4  and  C04_5 
REMARK    3  A    between atoms: C04_5  and  C05_6 
REMARK    4  A    between atoms: C09_10  and  C0A_11 
REMARK    5  A    between atoms: C0A_11  and  C0B_12 
REMARK       I    between atoms: C0B_12  and  N0C_13 
REMARK    6  A    between atoms: C0E_15  and  C0F_16 
REMARK    7  A    between atoms: C0F_16  and  C0G_17 
REMARK    8  A    between atoms: C0N_23  and  C0O_24 
REMARK    9  A    between atoms: C0O_24  and  N0P_25 
ROOT
ATOM      1  C02 MOL     1      -8.171  -6.447  -0.096  1.00  0.00    -0.044 C 
ATOM      2  C03 MOL     1      -9.486  -5.988  -0.253  1.00  0.00     0.129 C 
ATOM      3  C08 MOL     1      -9.807  -4.766  -0.970  1.00  0.00    -0.316 C 
ATOM      4  C09 MOL     1      -8.787  -4.114  -1.636  1.00  0.00     0.109 C 
ATOM      5  C0E MOL     1      -7.478  -4.466  -1.470  1.00  0.00    -0.064 C 
ATOM      6  C0N MOL     1      -7.176  -5.674  -0.799  1.00  0.00    -0.120 C 
ENDROOT
BRANCH   5   7
ATOM      7  C0F MOL     1      -6.401  -3.630  -2.143  1.00  0.00     0.047 C 
BRANCH   7   8
ATOM      8  C0G MOL     1      -5.794  -4.097  -3.438  1.00  0.00     0.171 C 
ATOM      9  C0M MOL     1      -4.524  -3.651  -3.859  1.00  0.00    -0.195 C 
ATOM     10  C0K MOL     1      -3.970  -4.086  -5.091  1.00  0.00    -0.062 C 
ATOM     11  C0J MOL     1      -4.718  -4.820  -6.016  1.00  0.00    -0.135 C 
ATOM     12  C0I MOL     1      -6.014  -5.226  -5.575  1.00  0.00    -0.071 C 
ATOM     13  C0H MOL     1      -6.463  -4.893  -4.314  1.00  0.00    -0.152 C 
ENDBRANCH   7   8
ENDBRANCH   5   7
BRANCH   6  14
ATOM     14  C0O MOL     1      -5.699  -6.166  -0.650  1.00  0.00     0.092 C 
BRANCH  14  15
ATOM     15  N0P MOL     1      -5.205  -7.131  -1.683  1.00  0.00    -0.153 N 
ATOM     16  H0Q MOL     1      -4.198  -7.148  -1.699  1.00  0.00     0.257 HD
ATOM     17  H0R MOL     1      -5.452  -8.065  -1.370  1.00  0.00     0.244 HD
ATOM     18  H0S MOL     1      -5.516  -6.947  -2.626  1.00  0.00     0.246 HD
ENDBRANCH  14  15
ENDBRANCH   6  14
BRANCH   4  19
ATOM     19  C0A MOL     1      -9.227  -3.006  -2.620  1.00  0.00    -0.219 C 
BRANCH  19  20
ATOM     20  C0B MOL     1     -10.141  -3.485  -3.795  1.00  0.00     0.819 C 
ATOM     21  N0C MOL     1     -11.136  -2.719  -4.122  1.00  0.00    -0.993 N 
ATOM     22  H13 MOL     1     -11.209  -1.841  -3.614  1.00  0.00     0.395 HD
ATOM     23  H14 MOL     1     -11.802  -3.016  -4.811  1.00  0.00     0.440 HD
ATOM     24  O0D MOL     1      -9.867  -4.492  -4.423  1.00  0.00    -0.614 OA
ENDBRANCH  19  20
ENDBRANCH   4  19
BRANCH   1  25
ATOM     25  C01 MOL     1      -7.805  -7.716   0.706  1.00  0.00    -0.066 C 
ATOM     26  C00 MOL     1      -7.520  -7.391   2.250  1.00  0.00    -0.126 C 
ENDBRANCH   1  25
BRANCH   2  27
ATOM     27  C04 MOL     1     -10.704  -6.618   0.382  1.00  0.00    -0.266 C 
BRANCH  27  28
ATOM     28  C05 MOL     1     -11.305  -5.846   1.530  1.00  0.00     0.870 C 
ATOM     29  O06 MOL     1     -12.376  -5.273   1.484  1.00  0.00    -0.820 OA
ATOM     30  O07 MOL     1     -10.681  -5.862   2.645  1.00  0.00    -0.676 OA
ENDBRANCH  27  28
ENDBRANCH   2  27
TORSDOF 9
ENDMDL
