MODEL 1
REMARK VINA RESULT:      -6.3      0.000      0.000
REMARK  9 active torsions:
REMARK  status: ('A' for Active; 'I' for Inactive)
REMARK    1  A    between atoms: C01_2  and  C02_3 
REMARK    2  A    between atoms: C03_4  and  C04_5 
REMARK    3  A    between atoms: C04_5  and  C05_6 
REMARK    4  A    between atoms: C09_10  and  C0A_11 
REMARK    5  A    between atoms: C0A_11  and  C0B_12 
REMARK       I    between atoms: C0B_12  and  N0C_13 
REMARK    6  A    between atoms: C0E_15  and  C0F_16 
REMARK    7  A    between atoms: C0F_16  and  C0G_17 
REMARK    8  A    between atoms: C0N_23  and  C0O_24 
REMARK    9  A    between atoms: C0O_24  and  N0P_25 
ROOT
ATOM      1  C02 MOL     1       1.856   7.253  -6.495  1.00  0.00    -0.044 C 
ATOM      2  C03 MOL     1       1.206   6.158  -5.910  1.00  0.00     0.129 C 
ATOM      3  C08 MOL     1       0.177   6.310  -4.896  1.00  0.00    -0.316 C 
ATOM      4  C09 MOL     1      -0.269   7.586  -4.606  1.00  0.00     0.109 C 
ATOM      5  C0E MOL     1       0.365   8.695  -5.085  1.00  0.00    -0.064 C 
ATOM      6  C0N MOL     1       1.343   8.541  -6.096  1.00  0.00    -0.120 C 
ENDROOT
BRANCH   5   7
ATOM      7  C0F MOL     1      -0.108  10.067  -4.630  1.00  0.00     0.047 C 
BRANCH   7   8
ATOM      8  C0G MOL     1       0.465  10.676  -3.379  1.00  0.00     0.171 C 
ATOM      9  C0M MOL     1      -0.365  11.102  -2.321  1.00  0.00    -0.195 C 
ATOM     10  C0K MOL     1       0.187  11.692  -1.154  1.00  0.00    -0.062 C 
ATOM     11  C0J MOL     1       1.538  12.038  -1.073  1.00  0.00    -0.135 C 
ATOM     12  C0I MOL     1       2.346  11.625  -2.175  1.00  0.00    -0.071 C 
ATOM     13  C0H MOL     1       1.791  10.936  -3.232  1.00  0.00    -0.152 C 
ENDBRANCH   7   8
ENDBRANCH   5   7
BRANCH   6  14
ATOM     14  C0O MOL     1       2.043   9.783  -6.737  1.00  0.00     0.092 C 
BRANCH  14  15
ATOM     15  N0P MOL     1       1.318  10.457  -7.861  1.00  0.00    -0.153 N 
ATOM     16  H0Q MOL     1       0.479  10.901  -7.524  1.00  0.00     0.257 HD
ATOM     17  H0R MOL     1       1.891  11.236  -8.170  1.00  0.00     0.244 HD
ATOM     18  H0S MOL     1       1.049   9.850  -8.623  1.00  0.00     0.246 HD
ENDBRANCH  14  15
ENDBRANCH   6  14
BRANCH   4  19
ATOM     19  C0A MOL     1      -1.557   7.671  -3.755  1.00  0.00    -0.219 C 
BRANCH  19  20
ATOM     20  C0B MOL     1      -2.879   7.330  -4.518  1.00  0.00     0.819 C 
ATOM     21  N0C MOL     1      -2.996   7.777  -5.730  1.00  0.00    -0.993 N 
ATOM     22  H13 MOL     1      -2.190   8.275  -6.102  1.00  0.00     0.395 HD
ATOM     23  H14 MOL     1      -3.854   7.661  -6.237  1.00  0.00     0.440 HD
ATOM     24  O0D MOL     1      -3.716   6.603  -4.014  1.00  0.00    -0.614 OA
ENDBRANCH  19  20
ENDBRANCH   4  19
BRANCH   1  25
ATOM     25  C01 MOL     1       2.988   7.110  -7.536  1.00  0.00    -0.066 C 
ATOM     26  C00 MOL     1       2.437   7.190  -9.041  1.00  0.00    -0.126 C 
ENDBRANCH   1  25
BRANCH   2  27
ATOM     27  C04 MOL     1       1.557   4.708  -6.159  1.00  0.00    -0.266 C 
BRANCH  27  28
ATOM     28  C05 MOL     1       0.648   3.981  -7.118  1.00  0.00     0.870 C 
ATOM     29  O06 MOL     1      -0.238   3.221  -6.779  1.00  0.00    -0.820 OA
ATOM     30  O07 MOL     1       0.769   4.244  -8.362  1.00  0.00    -0.676 OA
ENDBRANCH  27  28
ENDBRANCH   2  27
TORSDOF 9
ENDMDL
MODEL 2
REMARK VINA RESULT:      -5.9      3.438      6.957
REMARK  9 active torsions:
REMARK  status: ('A' for Active; 'I' for Inactive)
REMARK    1  A    between atoms: C01_2  and  C02_3 
REMARK    2  A    between atoms: C03_4  and  C04_5 
REMARK    3  A    between atoms: C04_5  and  C05_6 
REMARK    4  A    between atoms: C09_10  and  C0A_11 
REMARK    5  A    between atoms: C0A_11  and  C0B_12 
REMARK       I    between atoms: C0B_12  and  N0C_13 
REMARK    6  A    between atoms: C0E_15  and  C0F_16 
REMARK    7  A    between atoms: C0F_16  and  C0G_17 
REMARK    8  A    between atoms: C0N_23  and  C0O_24 
REMARK    9  A    between atoms: C0O_24  and  N0P_25 
ROOT
ATOM      1  C02 MOL     1       0.693  11.008  -2.374  1.00  0.00    -0.044 C 
ATOM      2  C03 MOL     1       2.010  11.179  -2.824  1.00  0.00     0.129 C 
ATOM      3  C08 MOL     1       2.557  10.432  -3.943  1.00  0.00    -0.316 C 
ATOM      4  C09 MOL     1       1.700   9.630  -4.673  1.00  0.00     0.109 C 
ATOM      5  C0E MOL     1       0.429   9.365  -4.251  1.00  0.00    -0.064 C 
ATOM      6  C0N MOL     1      -0.107  10.119  -3.181  1.00  0.00    -0.120 C 
ENDROOT
BRANCH   5   7
ATOM      7  C0F MOL     1      -0.418   8.380  -5.042  1.00  0.00     0.047 C 
BRANCH   7   8
ATOM      8  C0G MOL     1      -0.356   6.912  -4.714  1.00  0.00     0.171 C 
ATOM      9  C0M MOL     1       0.376   6.010  -5.514  1.00  0.00    -0.195 C 
ATOM     10  C0K MOL     1       0.413   4.626  -5.205  1.00  0.00    -0.062 C 
ATOM     11  C0J MOL     1      -0.406   4.070  -4.218  1.00  0.00    -0.135 C 
ATOM     12  C0I MOL     1      -1.162   5.005  -3.449  1.00  0.00    -0.071 C 
ATOM     13  C0H MOL     1      -1.067   6.358  -3.697  1.00  0.00    -0.152 C 
ENDBRANCH   7   8
ENDBRANCH   5   7
BRANCH   6  14
ATOM     14  C0O MOL     1      -1.584   9.913  -2.709  1.00  0.00     0.092 C 
BRANCH  14  15
ATOM     15  N0P MOL     1      -2.639  10.674  -3.452  1.00  0.00    -0.153 N 
ATOM     16  H0Q MOL     1      -3.464  10.779  -2.886  1.00  0.00     0.257 HD
ATOM     17  H0R MOL     1      -2.305  11.626  -3.565  1.00  0.00     0.244 HD
ATOM     18  H0S MOL     1      -2.928  10.261  -4.328  1.00  0.00     0.246 HD
ENDBRANCH  14  15
ENDBRANCH   6  14
BRANCH   4  19
ATOM     19  C0A MOL     1       2.253   9.102  -6.017  1.00  0.00    -0.219 C 
BRANCH  19  20
ATOM     20  C0B MOL     1       2.317  10.158  -7.168  1.00  0.00     0.819 C 
ATOM     21  N0C MOL     1       1.207  10.435  -7.781  1.00  0.00    -0.993 N 
ATOM     22  H13 MOL     1       0.374   9.972  -7.426  1.00  0.00     0.395 HD
ATOM     23  H14 MOL     1       1.204  11.041  -8.581  1.00  0.00     0.440 HD
ATOM     24  O0D MOL     1       3.353  10.751  -7.409  1.00  0.00    -0.614 OA
ENDBRANCH  19  20
ENDBRANCH   4  19
BRANCH   1  25
ATOM     25  C01 MOL     1       0.110  11.754  -1.154  1.00  0.00    -0.066 C 
ATOM     26  C00 MOL     1       0.399  10.981   0.221  1.00  0.00    -0.126 C 
ENDBRANCH   1  25
BRANCH   2  27
ATOM     27  C04 MOL     1       3.047  12.051  -2.153  1.00  0.00    -0.266 C 
BRANCH  27  28
ATOM     28  C05 MOL     1       4.093  11.311  -1.356  1.00  0.00     0.870 C 
ATOM     29  O06 MOL     1       3.844  10.471  -0.514  1.00  0.00    -0.820 OA
ATOM     30  O07 MOL     1       5.318  11.529  -1.643  1.00  0.00    -0.676 OA
ENDBRANCH  27  28
ENDBRANCH   2  27
TORSDOF 9
ENDMDL
MODEL 3
REMARK VINA RESULT:      -5.8      3.672      7.047
REMARK  9 active torsions:
REMARK  status: ('A' for Active; 'I' for Inactive)
REMARK    1  A    between atoms: C01_2  and  C02_3 
REMARK    2  A    between atoms: C03_4  and  C04_5 
REMARK    3  A    between atoms: C04_5  and  C05_6 
REMARK    4  A    between atoms: C09_10  and  C0A_11 
REMARK    5  A    between atoms: C0A_11  and  C0B_12 
REMARK       I    between atoms: C0B_12  and  N0C_13 
REMARK    6  A    between atoms: C0E_15  and  C0F_16 
REMARK    7  A    between atoms: C0F_16  and  C0G_17 
REMARK    8  A    between atoms: C0N_23  and  C0O_24 
REMARK    9  A    between atoms: C0O_24  and  N0P_25 
ROOT
ATOM      1  C02 MOL     1      -0.491   9.148  -2.850  1.00  0.00    -0.044 C 
ATOM      2  C03 MOL     1       0.777   9.444  -2.330  1.00  0.00     0.129 C 
ATOM      3  C08 MOL     1       1.860   8.476  -2.313  1.00  0.00    -0.316 C 
ATOM      4  C09 MOL     1       1.667   7.270  -2.961  1.00  0.00     0.109 C 
ATOM      5  C0E MOL     1       0.442   6.891  -3.425  1.00  0.00    -0.064 C 
ATOM      6  C0N MOL     1      -0.599   7.849  -3.469  1.00  0.00    -0.120 C 
ENDROOT
BRANCH   5   7
ATOM      7  C0F MOL     1       0.278   5.502  -4.022  1.00  0.00     0.047 C 
BRANCH   7   8
ATOM      8  C0G MOL     1       0.603   5.270  -5.472  1.00  0.00     0.171 C 
ATOM      9  C0M MOL     1       0.537   3.983  -6.045  1.00  0.00    -0.195 C 
ATOM     10  C0K MOL     1       0.863   3.774  -7.410  1.00  0.00    -0.062 C 
ATOM     11  C0J MOL     1       1.428   4.784  -8.194  1.00  0.00    -0.135 C 
ATOM     12  C0I MOL     1       1.514   6.067  -7.576  1.00  0.00    -0.071 C 
ATOM     13  C0H MOL     1       1.063   6.257  -6.287  1.00  0.00    -0.152 C 
ENDBRANCH   7   8
ENDBRANCH   5   7
BRANCH   6  14
ATOM     14  C0O MOL     1      -2.000   7.492  -4.065  1.00  0.00     0.092 C 
BRANCH  14  15
ATOM     15  N0P MOL     1      -2.181   7.716  -5.535  1.00  0.00    -0.153 N 
ATOM     16  H0Q MOL     1      -3.154   7.648  -5.786  1.00  0.00     0.257 HD
ATOM     17  H0R MOL     1      -1.953   8.687  -5.725  1.00  0.00     0.244 HD
ATOM     18  H0S MOL     1      -1.673   7.077  -6.131  1.00  0.00     0.246 HD
ENDBRANCH  14  15
ENDBRANCH   6  14
BRANCH   4  19
ATOM     19  C0A MOL     1       2.935   6.411  -3.173  1.00  0.00    -0.219 C 
BRANCH  19  20
ATOM     20  C0B MOL     1       4.272   7.073  -2.704  1.00  0.00     0.819 C 
ATOM     21  N0C MOL     1       4.702   6.764  -1.519  1.00  0.00    -0.993 N 
ATOM     22  H13 MOL     1       4.153   6.075  -1.011  1.00  0.00     0.395 HD
ATOM     23  H14 MOL     1       5.508   7.221  -1.134  1.00  0.00     0.440 HD
ATOM     24  O0D MOL     1       4.915   7.777  -3.462  1.00  0.00    -0.614 OA
ENDBRANCH  19  20
ENDBRANCH   4  19
BRANCH   1  25
ATOM     25  C01 MOL     1      -1.670  10.146  -2.831  1.00  0.00    -0.066 C 
ATOM     26  C00 MOL     1      -1.531  11.266  -3.970  1.00  0.00    -0.126 C 
ENDBRANCH   1  25
BRANCH   2  27
ATOM     27  C04 MOL     1       1.146  10.732  -1.631  1.00  0.00    -0.266 C 
BRANCH  27  28
ATOM     28  C05 MOL     1       2.212  11.553  -2.312  1.00  0.00     0.870 C 
ATOM     29  O06 MOL     1       2.481  11.479  -3.496  1.00  0.00    -0.820 OA
ATOM     30  O07 MOL     1       2.815  12.437  -1.615  1.00  0.00    -0.676 OA
ENDBRANCH  27  28
ENDBRANCH   2  27
TORSDOF 9
ENDMDL
MODEL 4
REMARK VINA RESULT:      -5.6     19.665     22.462
REMARK  9 active torsions:
REMARK  status: ('A' for Active; 'I' for Inactive)
REMARK    1  A    between atoms: C01_2  and  C02_3 
REMARK    2  A    between atoms: C03_4  and  C04_5 
REMARK    3  A    between atoms: C04_5  and  C05_6 
REMARK    4  A    between atoms: C09_10  and  C0A_11 
REMARK    5  A    between atoms: C0A_11  and  C0B_12 
REMARK       I    between atoms: C0B_12  and  N0C_13 
REMARK    6  A    between atoms: C0E_15  and  C0F_16 
REMARK    7  A    between atoms: C0F_16  and  C0G_17 
REMARK    8  A    between atoms: C0N_23  and  C0O_24 
REMARK    9  A    between atoms: C0O_24  and  N0P_25 
ROOT
ATOM      1  C02 MOL     1      -8.091   2.908  14.542  1.00  0.00    -0.044 C 
ATOM      2  C03 MOL     1      -7.397   3.151  13.348  1.00  0.00     0.129 C 
ATOM      3  C08 MOL     1      -7.477   2.261  12.202  1.00  0.00    -0.316 C 
ATOM      4  C09 MOL     1      -8.380   1.216  12.250  1.00  0.00     0.109 C 
ATOM      5  C0E MOL     1      -9.034   0.882  13.401  1.00  0.00    -0.064 C 
ATOM      6  C0N MOL     1      -8.977   1.770  14.501  1.00  0.00    -0.120 C 
ENDROOT
BRANCH   5   7
ATOM      7  C0F MOL     1      -9.923  -0.352  13.411  1.00  0.00     0.047 C 
BRANCH   7   8
ATOM      8  C0G MOL     1     -11.394  -0.213  13.130  1.00  0.00     0.171 C 
ATOM      9  C0M MOL     1     -11.925   0.958  12.551  1.00  0.00    -0.195 C 
ATOM     10  C0K MOL     1     -13.318   1.085  12.308  1.00  0.00    -0.062 C 
ATOM     11  C0J MOL     1     -14.236   0.147  12.787  1.00  0.00    -0.135 C 
ATOM     12  C0I MOL     1     -13.670  -1.011  13.400  1.00  0.00    -0.071 C 
ATOM     13  C0H MOL     1     -12.302  -1.155  13.498  1.00  0.00    -0.152 C 
ENDBRANCH   7   8
ENDBRANCH   5   7
BRANCH   6  14
ATOM     14  C0O MOL     1      -9.771   1.477  15.816  1.00  0.00     0.092 C 
BRANCH  14  15
ATOM     15  N0P MOL     1     -11.142   2.071  15.918  1.00  0.00    -0.153 N 
ATOM     16  H0Q MOL     1     -11.135   2.876  16.523  1.00  0.00     0.257 HD
ATOM     17  H0R MOL     1     -11.375   2.459  15.009  1.00  0.00     0.244 HD
ATOM     18  H0S MOL     1     -11.856   1.445  16.264  1.00  0.00     0.246 HD
ENDBRANCH  14  15
ENDBRANCH   6  14
BRANCH   4  19
ATOM     19  C0A MOL     1      -8.642   0.491  10.910  1.00  0.00    -0.219 C 
BRANCH  19  20
ATOM     20  C0B MOL     1      -7.395   0.352   9.976  1.00  0.00     0.819 C 
ATOM     21  N0C MOL     1      -7.303   1.182   8.983  1.00  0.00    -0.993 N 
ATOM     22  H13 MOL     1      -8.032   1.889   8.924  1.00  0.00     0.395 HD
ATOM     23  H14 MOL     1      -6.571   1.086   8.304  1.00  0.00     0.440 HD
ATOM     24  O0D MOL     1      -6.513  -0.448  10.233  1.00  0.00    -0.614 OA
ENDBRANCH  19  20
ENDBRANCH   4  19
BRANCH   1  25
ATOM     25  C01 MOL     1      -7.978   3.814  15.787  1.00  0.00    -0.066 C 
ATOM     26  C00 MOL     1      -8.953   5.085  15.699  1.00  0.00    -0.126 C 
ENDBRANCH   1  25
BRANCH   2  27
ATOM     27  C04 MOL     1      -6.408   4.274  13.135  1.00  0.00    -0.266 C 
BRANCH  27  28
ATOM     28  C05 MOL     1      -4.981   3.956  13.505  1.00  0.00     0.870 C 
ATOM     29  O06 MOL     1      -4.199   3.372  12.780  1.00  0.00    -0.820 OA
ATOM     30  O07 MOL     1      -4.547   4.398  14.622  1.00  0.00    -0.676 OA
ENDBRANCH  27  28
ENDBRANCH   2  27
TORSDOF 9
ENDMDL
MODEL 5
REMARK VINA RESULT:      -5.5      9.072     12.303
REMARK  9 active torsions:
REMARK  status: ('A' for Active; 'I' for Inactive)
REMARK    1  A    between atoms: C01_2  and  C02_3 
REMARK    2  A    between atoms: C03_4  and  C04_5 
REMARK    3  A    between atoms: C04_5  and  C05_6 
REMARK    4  A    between atoms: C09_10  and  C0A_11 
REMARK    5  A    between atoms: C0A_11  and  C0B_12 
REMARK       I    between atoms: C0B_12  and  N0C_13 
REMARK    6  A    between atoms: C0E_15  and  C0F_16 
REMARK    7  A    between atoms: C0F_16  and  C0G_17 
REMARK    8  A    between atoms: C0N_23  and  C0O_24 
REMARK    9  A    between atoms: C0O_24  and  N0P_25 
ROOT
ATOM      1  C02 MOL     1      -2.364  12.632   5.726  1.00  0.00    -0.044 C 
ATOM      2  C03 MOL     1      -2.417  13.580   4.695  1.00  0.00     0.129 C 
ATOM      3  C08 MOL     1      -1.577  13.497   3.513  1.00  0.00    -0.316 C 
ATOM      4  C09 MOL     1      -0.802  12.366   3.342  1.00  0.00     0.109 C 
ATOM      5  C0E MOL     1      -0.651  11.440   4.333  1.00  0.00    -0.064 C 
ATOM      6  C0N MOL     1      -1.496  11.509   5.467  1.00  0.00    -0.120 C 
ENDROOT
BRANCH   5   7
ATOM      7  C0F MOL     1       0.310  10.281   4.118  1.00  0.00     0.047 C 
BRANCH   7   8
ATOM      8  C0G MOL     1       1.663  10.302   4.776  1.00  0.00     0.171 C 
ATOM      9  C0M MOL     1       2.491  11.442   4.720  1.00  0.00    -0.195 C 
ATOM     10  C0K MOL     1       3.772  11.444   5.329  1.00  0.00    -0.062 C 
ATOM     11  C0J MOL     1       4.341  10.278   5.849  1.00  0.00    -0.135 C 
ATOM     12  C0I MOL     1       3.491   9.131   5.860  1.00  0.00    -0.071 C 
ATOM     13  C0H MOL     1       2.202   9.208   5.377  1.00  0.00    -0.152 C 
ENDBRANCH   7   8
ENDBRANCH   5   7
BRANCH   6  14
ATOM     14  C0O MOL     1      -1.421  10.430   6.595  1.00  0.00     0.092 C 
BRANCH  14  15
ATOM     15  N0P MOL     1      -0.395  10.647   7.665  1.00  0.00    -0.153 N 
ATOM     16  H0Q MOL     1       0.115  11.499   7.498  1.00  0.00     0.257 HD
ATOM     17  H0R MOL     1      -0.891  10.832   8.531  1.00  0.00     0.244 HD
ATOM     18  H0S MOL     1       0.286   9.906   7.762  1.00  0.00     0.246 HD
ENDBRANCH  14  15
ENDBRANCH   6  14
BRANCH   4  19
ATOM     19  C0A MOL     1      -0.168  12.190   1.942  1.00  0.00    -0.219 C 
BRANCH  19  20
ATOM     20  C0B MOL     1       0.411  13.496   1.307  1.00  0.00     0.819 C 
ATOM     21  N0C MOL     1       1.543  13.930   1.772  1.00  0.00    -0.993 N 
ATOM     22  H13 MOL     1       1.984  13.351   2.483  1.00  0.00     0.395 HD
ATOM     23  H14 MOL     1       1.920  14.806   1.461  1.00  0.00     0.440 HD
ATOM     24  O0D MOL     1      -0.142  14.024   0.360  1.00  0.00    -0.614 OA
ENDBRANCH  19  20
ENDBRANCH   4  19
BRANCH   1  25
ATOM     25  C01 MOL     1      -3.212  12.730   7.013  1.00  0.00    -0.066 C 
ATOM     26  C00 MOL     1      -4.562  11.870   6.914  1.00  0.00    -0.126 C 
ENDBRANCH   1  25
BRANCH   2  27
ATOM     27  C04 MOL     1      -3.245  14.845   4.724  1.00  0.00    -0.266 C 
BRANCH  27  28
ATOM     28  C05 MOL     1      -4.688  14.679   4.320  1.00  0.00     0.870 C 
ATOM     29  O06 MOL     1      -5.062  14.482   3.180  1.00  0.00    -0.820 OA
ATOM     30  O07 MOL     1      -5.565  14.667   5.249  1.00  0.00    -0.676 OA
ENDBRANCH  27  28
ENDBRANCH   2  27
TORSDOF 9
ENDMDL
MODEL 6
REMARK VINA RESULT:      -5.4      1.861      2.177
REMARK  9 active torsions:
REMARK  status: ('A' for Active; 'I' for Inactive)
REMARK    1  A    between atoms: C01_2  and  C02_3 
REMARK    2  A    between atoms: C03_4  and  C04_5 
REMARK    3  A    between atoms: C04_5  and  C05_6 
REMARK    4  A    between atoms: C09_10  and  C0A_11 
REMARK    5  A    between atoms: C0A_11  and  C0B_12 
REMARK       I    between atoms: C0B_12  and  N0C_13 
REMARK    6  A    between atoms: C0E_15  and  C0F_16 
REMARK    7  A    between atoms: C0F_16  and  C0G_17 
REMARK    8  A    between atoms: C0N_23  and  C0O_24 
REMARK    9  A    between atoms: C0O_24  and  N0P_25 
ROOT
ATOM      1  C02 MOL     1       1.839   8.550  -6.291  1.00  0.00    -0.044 C 
ATOM      2  C03 MOL     1       1.260   7.279  -6.415  1.00  0.00     0.129 C 
ATOM      3  C08 MOL     1       0.043   6.903  -5.717  1.00  0.00    -0.316 C 
ATOM      4  C09 MOL     1      -0.637   7.883  -5.018  1.00  0.00     0.109 C 
ATOM      5  C0E MOL     1      -0.097   9.117  -4.800  1.00  0.00    -0.064 C 
ATOM      6  C0N MOL     1       1.070   9.487  -5.509  1.00  0.00    -0.120 C 
ENDROOT
BRANCH   5   7
ATOM      7  C0F MOL     1      -0.851  10.106  -3.923  1.00  0.00     0.047 C 
BRANCH   7   8
ATOM      8  C0G MOL     1      -0.402  10.337  -2.506  1.00  0.00     0.171 C 
ATOM      9  C0M MOL     1      -0.208  11.639  -1.999  1.00  0.00    -0.195 C 
ATOM     10  C0K MOL     1       0.232  11.844  -0.665  1.00  0.00    -0.062 C 
ATOM     11  C0J MOL     1       0.661  10.785   0.139  1.00  0.00    -0.135 C 
ATOM     12  C0I MOL     1       0.485   9.481  -0.416  1.00  0.00    -0.071 C 
ATOM     13  C0H MOL     1      -0.071   9.320  -1.667  1.00  0.00    -0.152 C 
ENDBRANCH   7   8
ENDBRANCH   5   7
BRANCH   6  14
ATOM     14  C0O MOL     1       1.686  10.917  -5.358  1.00  0.00     0.092 C 
BRANCH  14  15
ATOM     15  N0P MOL     1       2.653  11.115  -4.231  1.00  0.00    -0.153 N 
ATOM     16  H0Q MOL     1       2.464  10.466  -3.484  1.00  0.00     0.257 HD
ATOM     17  H0R MOL     1       3.571  10.834  -4.563  1.00  0.00     0.244 HD
ATOM     18  H0S MOL     1       2.657  12.042  -3.828  1.00  0.00     0.246 HD
ENDBRANCH  14  15
ENDBRANCH   6  14
BRANCH   4  19
ATOM     19  C0A MOL     1      -2.064   7.510  -4.553  1.00  0.00    -0.219 C 
BRANCH  19  20
ATOM     20  C0B MOL     1      -2.136   6.377  -3.478  1.00  0.00     0.819 C 
ATOM     21  N0C MOL     1      -3.127   5.543  -3.562  1.00  0.00    -0.993 N 
ATOM     22  H13 MOL     1      -3.751   5.669  -4.356  1.00  0.00     0.395 HD
ATOM     23  H14 MOL     1      -3.270   4.848  -2.853  1.00  0.00     0.440 HD
ATOM     24  O0D MOL     1      -1.248   6.243  -2.656  1.00  0.00    -0.614 OA
ENDBRANCH  19  20
ENDBRANCH   4  19
BRANCH   1  25
ATOM     25  C01 MOL     1       3.159   8.951  -6.984  1.00  0.00    -0.066 C 
ATOM     26  C00 MOL     1       4.446   8.514  -6.132  1.00  0.00    -0.126 C 
ENDBRANCH   1  25
BRANCH   2  27
ATOM     27  C04 MOL     1       1.866   6.122  -7.176  1.00  0.00    -0.266 C 
BRANCH  27  28
ATOM     28  C05 MOL     1       2.272   4.939  -6.333  1.00  0.00     0.870 C 
ATOM     29  O06 MOL     1       3.014   5.004  -5.372  1.00  0.00    -0.820 OA
ATOM     30  O07 MOL     1       1.739   3.810  -6.603  1.00  0.00    -0.676 OA
ENDBRANCH  27  28
ENDBRANCH   2  27
TORSDOF 9
ENDMDL
MODEL 7
REMARK VINA RESULT:      -5.3     20.058     22.672
REMARK  9 active torsions:
REMARK  status: ('A' for Active; 'I' for Inactive)
REMARK    1  A    between atoms: C01_2  and  C02_3 
REMARK    2  A    between atoms: C03_4  and  C04_5 
REMARK    3  A    between atoms: C04_5  and  C05_6 
REMARK    4  A    between atoms: C09_10  and  C0A_11 
REMARK    5  A    between atoms: C0A_11  and  C0B_12 
REMARK       I    between atoms: C0B_12  and  N0C_13 
REMARK    6  A    between atoms: C0E_15  and  C0F_16 
REMARK    7  A    between atoms: C0F_16  and  C0G_17 
REMARK    8  A    between atoms: C0N_23  and  C0O_24 
REMARK    9  A    between atoms: C0O_24  and  N0P_25 
ROOT
ATOM      1  C02 MOL     1      -8.721   4.057  13.716  1.00  0.00    -0.044 C 
ATOM      2  C03 MOL     1      -7.574   3.638  13.028  1.00  0.00     0.129 C 
ATOM      3  C08 MOL     1      -7.378   2.264  12.598  1.00  0.00    -0.316 C 
ATOM      4  C09 MOL     1      -8.426   1.376  12.754  1.00  0.00     0.109 C 
ATOM      5  C0E MOL     1      -9.539   1.697  13.475  1.00  0.00    -0.064 C 
ATOM      6  C0N MOL     1      -9.738   3.044  13.862  1.00  0.00    -0.120 C 
ENDROOT
BRANCH   5   7
ATOM      7  C0F MOL     1     -10.600   0.632  13.705  1.00  0.00     0.047 C 
BRANCH   7   8
ATOM      8  C0G MOL     1     -10.563  -0.198  14.959  1.00  0.00     0.171 C 
ATOM      9  C0M MOL     1     -10.518   0.399  16.236  1.00  0.00    -0.195 C 
ATOM     10  C0K MOL     1     -10.466  -0.394  17.412  1.00  0.00    -0.062 C 
ATOM     11  C0J MOL     1     -10.277  -1.778  17.357  1.00  0.00    -0.135 C 
ATOM     12  C0I MOL     1     -10.291  -2.349  16.049  1.00  0.00    -0.071 C 
ATOM     13  C0H MOL     1     -10.477  -1.555  14.938  1.00  0.00    -0.152 C 
ENDBRANCH   7   8
ENDBRANCH   5   7
BRANCH   6  14
ATOM     14  C0O MOL     1     -11.034   3.483  14.619  1.00  0.00     0.092 C 
BRANCH  14  15
ATOM     15  N0P MOL     1     -12.192   3.916  13.774  1.00  0.00    -0.153 N 
ATOM     16  H0Q MOL     1     -12.361   3.250  13.038  1.00  0.00     0.257 HD
ATOM     17  H0R MOL     1     -13.028   3.854  14.347  1.00  0.00     0.244 HD
ATOM     18  H0S MOL     1     -12.090   4.822  13.339  1.00  0.00     0.246 HD
ENDBRANCH  14  15
ENDBRANCH   6  14
BRANCH   4  19
ATOM     19  C0A MOL     1      -8.279   0.026  12.016  1.00  0.00    -0.219 C 
BRANCH  19  20
ATOM     20  C0B MOL     1      -7.672   0.118  10.578  1.00  0.00     0.819 C 
ATOM     21  N0C MOL     1      -8.319   0.830   9.707  1.00  0.00    -0.993 N 
ATOM     22  H13 MOL     1      -9.148   1.310  10.049  1.00  0.00     0.395 HD
ATOM     23  H14 MOL     1      -8.022   0.857   8.749  1.00  0.00     0.440 HD
ATOM     24  O0D MOL     1      -6.594  -0.388  10.325  1.00  0.00    -0.614 OA
ENDBRANCH  19  20
ENDBRANCH   4  19
BRANCH   1  25
ATOM     25  C01 MOL     1      -8.924   5.500  14.226  1.00  0.00    -0.066 C 
ATOM     26  C00 MOL     1      -8.266   5.728  15.671  1.00  0.00    -0.126 C 
ENDBRANCH   1  25
BRANCH   2  27
ATOM     27  C04 MOL     1      -6.367   4.504  12.749  1.00  0.00    -0.266 C 
BRANCH  27  28
ATOM     28  C05 MOL     1      -5.117   4.132  13.507  1.00  0.00     0.870 C 
ATOM     29  O06 MOL     1      -4.980   4.263  14.708  1.00  0.00    -0.820 OA
ATOM     30  O07 MOL     1      -4.174   3.571  12.853  1.00  0.00    -0.676 OA
ENDBRANCH  27  28
ENDBRANCH   2  27
TORSDOF 9
ENDMDL
MODEL 8
REMARK VINA RESULT:      -5.3      3.932      6.829
REMARK  9 active torsions:
REMARK  status: ('A' for Active; 'I' for Inactive)
REMARK    1  A    between atoms: C01_2  and  C02_3 
REMARK    2  A    between atoms: C03_4  and  C04_5 
REMARK    3  A    between atoms: C04_5  and  C05_6 
REMARK    4  A    between atoms: C09_10  and  C0A_11 
REMARK    5  A    between atoms: C0A_11  and  C0B_12 
REMARK       I    between atoms: C0B_12  and  N0C_13 
REMARK    6  A    between atoms: C0E_15  and  C0F_16 
REMARK    7  A    between atoms: C0F_16  and  C0G_17 
REMARK    8  A    between atoms: C0N_23  and  C0O_24 
REMARK    9  A    between atoms: C0O_24  and  N0P_25 
ROOT
ATOM      1  C02 MOL     1       2.383  11.339  -2.349  1.00  0.00    -0.044 C 
ATOM      2  C03 MOL     1       3.236  11.668  -3.412  1.00  0.00     0.129 C 
ATOM      3  C08 MOL     1       2.990  11.232  -4.775  1.00  0.00    -0.316 C 
ATOM      4  C09 MOL     1       1.797  10.590  -5.049  1.00  0.00     0.109 C 
ATOM      5  C0E MOL     1       0.957  10.179  -4.055  1.00  0.00    -0.064 C 
ATOM      6  C0N MOL     1       1.186  10.634  -2.735  1.00  0.00    -0.120 C 
ENDROOT
BRANCH   5   7
ATOM      7  C0F MOL     1      -0.280   9.374  -4.423  1.00  0.00     0.047 C 
BRANCH   7   8
ATOM      8  C0G MOL     1      -0.261   7.875  -4.290  1.00  0.00     0.171 C 
ATOM      9  C0M MOL     1      -1.302   7.181  -3.639  1.00  0.00    -0.195 C 
ATOM     10  C0K MOL     1      -1.265   5.769  -3.504  1.00  0.00    -0.062 C 
ATOM     11  C0J MOL     1      -0.129   5.028  -3.843  1.00  0.00    -0.135 C 
ATOM     12  C0I MOL     1       0.922   5.764  -4.467  1.00  0.00    -0.071 C 
ATOM     13  C0H MOL     1       0.790   7.117  -4.700  1.00  0.00    -0.152 C 
ENDBRANCH   7   8
ENDBRANCH   5   7
BRANCH   6  14
ATOM     14  C0O MOL     1       0.210  10.259  -1.572  1.00  0.00     0.092 C 
BRANCH  14  15
ATOM     15  N0P MOL     1       0.437   8.937  -0.905  1.00  0.00    -0.153 N 
ATOM     16  H0Q MOL     1       0.425   8.193  -1.583  1.00  0.00     0.257 HD
ATOM     17  H0R MOL     1       1.392   8.930  -0.560  1.00  0.00     0.244 HD
ATOM     18  H0S MOL     1      -0.234   8.698  -0.187  1.00  0.00     0.246 HD
ENDBRANCH  14  15
ENDBRANCH   6  14
BRANCH   4  19
ATOM     19  C0A MOL     1       1.452  10.420  -6.546  1.00  0.00    -0.219 C 
BRANCH  19  20
ATOM     20  C0B MOL     1       1.222  11.754  -7.329  1.00  0.00     0.819 C 
ATOM     21  N0C MOL     1       0.054  12.309  -7.222  1.00  0.00    -0.993 N 
ATOM     22  H13 MOL     1      -0.603  11.851  -6.594  1.00  0.00     0.395 HD
ATOM     23  H14 MOL     1      -0.178  13.119  -7.767  1.00  0.00     0.440 HD
ATOM     24  O0D MOL     1       2.134  12.282  -7.938  1.00  0.00    -0.614 OA
ENDBRANCH  19  20
ENDBRANCH   4  19
BRANCH   1  25
ATOM     25  C01 MOL     1       2.656  11.749  -0.885  1.00  0.00    -0.066 C 
ATOM     26  C00 MOL     1       3.528  10.653  -0.104  1.00  0.00    -0.126 C 
ENDBRANCH   1  25
BRANCH   2  27
ATOM     27  C04 MOL     1       4.552  12.399  -3.271  1.00  0.00    -0.266 C 
BRANCH  27  28
ATOM     28  C05 MOL     1       5.741  11.530  -2.948  1.00  0.00     0.870 C 
ATOM     29  O06 MOL     1       6.190  10.679  -3.692  1.00  0.00    -0.820 OA
ATOM     30  O07 MOL     1       6.362  11.759  -1.856  1.00  0.00    -0.676 OA
ENDBRANCH  27  28
ENDBRANCH   2  27
TORSDOF 9
ENDMDL
MODEL 9
REMARK VINA RESULT:      -5.3     11.687     15.449
REMARK  9 active torsions:
REMARK  status: ('A' for Active; 'I' for Inactive)
REMARK    1  A    between atoms: C01_2  and  C02_3 
REMARK    2  A    between atoms: C03_4  and  C04_5 
REMARK    3  A    between atoms: C04_5  and  C05_6 
REMARK    4  A    between atoms: C09_10  and  C0A_11 
REMARK    5  A    between atoms: C0A_11  and  C0B_12 
REMARK       I    between atoms: C0B_12  and  N0C_13 
REMARK    6  A    between atoms: C0E_15  and  C0F_16 
REMARK    7  A    between atoms: C0F_16  and  C0G_17 
REMARK    8  A    between atoms: C0N_23  and  C0O_24 
REMARK    9  A    between atoms: C0O_24  and  N0P_25 
ROOT
ATOM      1  C02 MOL     1       0.514   7.930 -17.304  1.00  0.00    -0.044 C 
ATOM      2  C03 MOL     1       0.771   9.304 -17.399  1.00  0.00     0.129 C 
ATOM      3  C08 MOL     1       0.556  10.057 -18.623  1.00  0.00    -0.316 C 
ATOM      4  C09 MOL     1      -0.055   9.415 -19.684  1.00  0.00     0.109 C 
ATOM      5  C0E MOL     1      -0.268   8.067 -19.684  1.00  0.00    -0.064 C 
ATOM      6  C0N MOL     1      -0.088   7.347 -18.479  1.00  0.00    -0.120 C 
ENDROOT
BRANCH   5   7
ATOM      7  C0F MOL     1      -0.838   7.412 -20.932  1.00  0.00     0.047 C 
BRANCH   7   8
ATOM      8  C0G MOL     1      -2.329   7.318 -21.111  1.00  0.00     0.171 C 
ATOM      9  C0M MOL     1      -3.064   8.357 -21.717  1.00  0.00    -0.195 C 
ATOM     10  C0K MOL     1      -4.473   8.264 -21.864  1.00  0.00    -0.062 C 
ATOM     11  C0J MOL     1      -5.209   7.240 -21.264  1.00  0.00    -0.135 C 
ATOM     12  C0I MOL     1      -4.438   6.221 -20.627  1.00  0.00    -0.071 C 
ATOM     13  C0H MOL     1      -3.061   6.282 -20.622  1.00  0.00    -0.152 C 
ENDBRANCH   7   8
ENDBRANCH   5   7
BRANCH   6  14
ATOM     14  C0O MOL     1      -0.393   5.816 -18.401  1.00  0.00     0.092 C 
BRANCH  14  15
ATOM     15  N0P MOL     1      -1.703   5.423 -17.790  1.00  0.00    -0.153 N 
ATOM     16  H0Q MOL     1      -2.438   5.456 -18.478  1.00  0.00     0.257 HD
ATOM     17  H0R MOL     1      -1.645   4.437 -17.552  1.00  0.00     0.244 HD
ATOM     18  H0S MOL     1      -1.999   5.991 -17.009  1.00  0.00     0.246 HD
ENDBRANCH  14  15
ENDBRANCH   6  14
BRANCH   4  19
ATOM     19  C0A MOL     1      -0.531  10.328 -20.838  1.00  0.00    -0.219 C 
BRANCH  19  20
ATOM     20  C0B MOL     1       0.596  11.159 -21.534  1.00  0.00     0.819 C 
ATOM     21  N0C MOL     1       1.378  10.526 -22.353  1.00  0.00    -0.993 N 
ATOM     22  H13 MOL     1       1.161   9.544 -22.510  1.00  0.00     0.395 HD
ATOM     23  H14 MOL     1       2.169  10.988 -22.764  1.00  0.00     0.440 HD
ATOM     24  O0D MOL     1       0.669  12.363 -21.373  1.00  0.00    -0.614 OA
ENDBRANCH  19  20
ENDBRANCH   4  19
BRANCH   1  25
ATOM     25  C01 MOL     1       0.784   7.103 -16.028  1.00  0.00    -0.066 C 
ATOM     26  C00 MOL     1       2.234   6.415 -16.050  1.00  0.00    -0.126 C 
ENDBRANCH   1  25
BRANCH   2  27
ATOM     27  C04 MOL     1       1.399  10.145 -16.311  1.00  0.00    -0.266 C 
BRANCH  27  28
ATOM     28  C05 MOL     1       2.903  10.076 -16.231  1.00  0.00     0.870 C 
ATOM     29  O06 MOL     1       3.517   9.583 -15.305  1.00  0.00    -0.820 OA
ATOM     30  O07 MOL     1       3.570  10.493 -17.237  1.00  0.00    -0.676 OA
ENDBRANCH  27  28
ENDBRANCH   2  27
TORSDOF 9
ENDMDL
MODEL 10
REMARK VINA RESULT:      -5.3      3.035      4.913
REMARK  9 active torsions:
REMARK  status: ('A' for Active; 'I' for Inactive)
REMARK    1  A    between atoms: C01_2  and  C02_3 
REMARK    2  A    between atoms: C03_4  and  C04_5 
REMARK    3  A    between atoms: C04_5  and  C05_6 
REMARK    4  A    between atoms: C09_10  and  C0A_11 
REMARK    5  A    between atoms: C0A_11  and  C0B_12 
REMARK       I    between atoms: C0B_12  and  N0C_13 
REMARK    6  A    between atoms: C0E_15  and  C0F_16 
REMARK    7  A    between atoms: C0F_16  and  C0G_17 
REMARK    8  A    between atoms: C0N_23  and  C0O_24 
REMARK    9  A    between atoms: C0O_24  and  N0P_25 
ROOT
ATOM      1  C02 MOL     1      -0.393   8.119  -3.864  1.00  0.00    -0.044 C 
ATOM      2  C03 MOL     1       0.931   7.702  -4.057  1.00  0.00     0.129 C 
ATOM      3  C08 MOL     1       2.071   8.499  -3.641  1.00  0.00    -0.316 C 
ATOM      4  C09 MOL     1       1.831   9.644  -2.904  1.00  0.00     0.109 C 
ATOM      5  C0E MOL     1       0.572  10.144  -2.740  1.00  0.00    -0.064 C 
ATOM      6  C0N MOL     1      -0.534   9.346  -3.119  1.00  0.00    -0.120 C 
ENDROOT
BRANCH   5   7
ATOM      7  C0F MOL     1       0.395  11.471  -2.018  1.00  0.00     0.047 C 
BRANCH   7   8
ATOM      8  C0G MOL     1       0.356  11.502  -0.515  1.00  0.00     0.171 C 
ATOM      9  C0M MOL     1       0.167  10.326   0.241  1.00  0.00    -0.195 C 
ATOM     10  C0K MOL     1       0.115  10.370   1.659  1.00  0.00    -0.062 C 
ATOM     11  C0J MOL     1       0.067  11.581   2.355  1.00  0.00    -0.135 C 
ATOM     12  C0I MOL     1       0.225  12.755   1.559  1.00  0.00    -0.071 C 
ATOM     13  C0H MOL     1       0.406  12.660   0.195  1.00  0.00    -0.152 C 
ENDBRANCH   7   8
ENDBRANCH   5   7
BRANCH   6  14
ATOM     14  C0O MOL     1      -2.000   9.836  -2.881  1.00  0.00     0.092 C 
BRANCH  14  15
ATOM     15  N0P MOL     1      -2.572  10.767  -3.905  1.00  0.00    -0.153 N 
ATOM     16  H0Q MOL     1      -2.240  10.527  -4.825  1.00  0.00     0.257 HD
ATOM     17  H0R MOL     1      -3.570  10.586  -3.959  1.00  0.00     0.244 HD
ATOM     18  H0S MOL     1      -2.366  11.745  -3.758  1.00  0.00     0.246 HD
ENDBRANCH  14  15
ENDBRANCH   6  14
BRANCH   4  19
ATOM     19  C0A MOL     1       3.069  10.285  -2.235  1.00  0.00    -0.219 C 
BRANCH  19  20
ATOM     20  C0B MOL     1       3.740  11.439  -3.048  1.00  0.00     0.819 C 
ATOM     21  N0C MOL     1       4.370  11.111  -4.134  1.00  0.00    -0.993 N 
ATOM     22  H13 MOL     1       4.332  10.127  -4.392  1.00  0.00     0.395 HD
ATOM     23  H14 MOL     1       4.889  11.797  -4.650  1.00  0.00     0.440 HD
ATOM     24  O0D MOL     1       3.596  12.601  -2.712  1.00  0.00    -0.614 OA
ENDBRANCH  19  20
ENDBRANCH   4  19
BRANCH   1  25
ATOM     25  C01 MOL     1      -1.617   7.309  -4.346  1.00  0.00    -0.066 C 
ATOM     26  C00 MOL     1      -2.050   6.184  -3.288  1.00  0.00    -0.126 C 
ENDBRANCH   1  25
BRANCH   2  27
ATOM     27  C04 MOL     1       1.345   6.456  -4.807  1.00  0.00    -0.266 C 
BRANCH  27  28
ATOM     28  C05 MOL     1       1.501   5.217  -3.962  1.00  0.00     0.870 C 
ATOM     29  O06 MOL     1       0.707   4.296  -3.943  1.00  0.00    -0.820 OA
ATOM     30  O07 MOL     1       2.576   5.095  -3.283  1.00  0.00    -0.676 OA
ENDBRANCH  27  28
ENDBRANCH   2  27
TORSDOF 9
ENDMDL
MODEL 11
REMARK VINA RESULT:      -5.2      3.840      6.054
REMARK  9 active torsions:
REMARK  status: ('A' for Active; 'I' for Inactive)
REMARK    1  A    between atoms: C01_2  and  C02_3 
REMARK    2  A    between atoms: C03_4  and  C04_5 
REMARK    3  A    between atoms: C04_5  and  C05_6 
REMARK    4  A    between atoms: C09_10  and  C0A_11 
REMARK    5  A    between atoms: C0A_11  and  C0B_12 
REMARK       I    between atoms: C0B_12  and  N0C_13 
REMARK    6  A    between atoms: C0E_15  and  C0F_16 
REMARK    7  A    between atoms: C0F_16  and  C0G_17 
REMARK    8  A    between atoms: C0N_23  and  C0O_24 
REMARK    9  A    between atoms: C0O_24  and  N0P_25 
ROOT
ATOM      1  C02 MOL     1       1.190  10.728  -3.838  1.00  0.00    -0.044 C 
ATOM      2  C03 MOL     1      -0.072  10.710  -3.228  1.00  0.00     0.129 C 
ATOM      3  C08 MOL     1      -0.256  10.932  -1.804  1.00  0.00    -0.316 C 
ATOM      4  C09 MOL     1       0.843  11.312  -1.057  1.00  0.00     0.109 C 
ATOM      5  C0E MOL     1       2.108  11.281  -1.570  1.00  0.00    -0.064 C 
ATOM      6  C0N MOL     1       2.276  11.096  -2.963  1.00  0.00    -0.120 C 
ENDROOT
BRANCH   5   7
ATOM      7  C0F MOL     1       3.281  11.598  -0.655  1.00  0.00     0.047 C 
BRANCH   7   8
ATOM      8  C0G MOL     1       3.940  10.492   0.123  1.00  0.00     0.171 C 
ATOM      9  C0M MOL     1       4.560   9.404  -0.526  1.00  0.00    -0.195 C 
ATOM     10  C0K MOL     1       5.163   8.358   0.219  1.00  0.00    -0.062 C 
ATOM     11  C0J MOL     1       5.016   8.263   1.606  1.00  0.00    -0.135 C 
ATOM     12  C0I MOL     1       4.352   9.362   2.230  1.00  0.00    -0.071 C 
ATOM     13  C0H MOL     1       3.897  10.425   1.480  1.00  0.00    -0.152 C 
ENDBRANCH   7   8
ENDBRANCH   5   7
BRANCH   6  14
ATOM     14  C0O MOL     1       3.696  11.132  -3.615  1.00  0.00     0.092 C 
BRANCH  14  15
ATOM     15  N0P MOL     1       4.202  12.473  -4.050  1.00  0.00    -0.153 N 
ATOM     16  H0Q MOL     1       4.685  12.401  -4.931  1.00  0.00     0.257 HD
ATOM     17  H0R MOL     1       3.394  13.048  -4.268  1.00  0.00     0.244 HD
ATOM     18  H0S MOL     1       4.831  12.925  -3.401  1.00  0.00     0.246 HD
ENDBRANCH  14  15
ENDBRANCH   6  14
BRANCH   4  19
ATOM     19  C0A MOL     1       0.542  11.824   0.370  1.00  0.00    -0.219 C 
BRANCH  19  20
ATOM     20  C0B MOL     1       0.525  13.380   0.527  1.00  0.00     0.819 C 
ATOM     21  N0C MOL     1       1.454  13.911   1.261  1.00  0.00    -0.993 N 
ATOM     22  H13 MOL     1       2.148  13.269   1.637  1.00  0.00     0.395 HD
ATOM     23  H14 MOL     1       1.443  14.894   1.465  1.00  0.00     0.440 HD
ATOM     24  O0D MOL     1      -0.277  14.057  -0.090  1.00  0.00    -0.614 OA
ENDBRANCH  19  20
ENDBRANCH   4  19
BRANCH   1  25
ATOM     25  C01 MOL     1       1.410  10.443  -5.340  1.00  0.00    -0.066 C 
ATOM     26  C00 MOL     1       0.964  11.679  -6.260  1.00  0.00    -0.126 C 
ENDBRANCH   1  25
BRANCH   2  27
ATOM     27  C04 MOL     1      -1.365  10.353  -3.925  1.00  0.00    -0.266 C 
BRANCH  27  28
ATOM     28  C05 MOL     1      -1.650   8.876  -4.037  1.00  0.00     0.870 C 
ATOM     29  O06 MOL     1      -1.313   8.183  -4.977  1.00  0.00    -0.820 OA
ATOM     30  O07 MOL     1      -2.214   8.305  -3.043  1.00  0.00    -0.676 OA
ENDBRANCH  27  28
ENDBRANCH   2  27
TORSDOF 9
ENDMDL
MODEL 12
REMARK VINA RESULT:      -5.2     19.224     21.914
REMARK  9 active torsions:
REMARK  status: ('A' for Active; 'I' for Inactive)
REMARK    1  A    between atoms: C01_2  and  C02_3 
REMARK    2  A    between atoms: C03_4  and  C04_5 
REMARK    3  A    between atoms: C04_5  and  C05_6 
REMARK    4  A    between atoms: C09_10  and  C0A_11 
REMARK    5  A    between atoms: C0A_11  and  C0B_12 
REMARK       I    between atoms: C0B_12  and  N0C_13 
REMARK    6  A    between atoms: C0E_15  and  C0F_16 
REMARK    7  A    between atoms: C0F_16  and  C0G_17 
REMARK    8  A    between atoms: C0N_23  and  C0O_24 
REMARK    9  A    between atoms: C0O_24  and  N0P_25 
ROOT
ATOM      1  C02 MOL     1     -10.627   4.014  11.850  1.00  0.00    -0.044 C 
ATOM      2  C03 MOL     1      -9.256   4.103  11.571  1.00  0.00     0.129 C 
ATOM      3  C08 MOL     1      -8.354   2.975  11.718  1.00  0.00    -0.316 C 
ATOM      4  C09 MOL     1      -8.898   1.738  12.009  1.00  0.00     0.109 C 
ATOM      5  C0E MOL     1     -10.209   1.593  12.360  1.00  0.00    -0.064 C 
ATOM      6  C0N MOL     1     -11.089   2.688  12.183  1.00  0.00    -0.120 C 
ENDROOT
BRANCH   5   7
ATOM      7  C0F MOL     1     -10.711   0.221  12.781  1.00  0.00     0.047 C 
BRANCH   7   8
ATOM      8  C0G MOL     1     -10.675  -0.172  14.233  1.00  0.00     0.171 C 
ATOM      9  C0M MOL     1     -10.596   0.796  15.256  1.00  0.00    -0.195 C 
ATOM     10  C0K MOL     1     -10.545   0.412  16.621  1.00  0.00    -0.062 C 
ATOM     11  C0J MOL     1     -10.390  -0.923  17.005  1.00  0.00    -0.135 C 
ATOM     12  C0I MOL     1     -10.438  -1.877  15.944  1.00  0.00    -0.071 C 
ATOM     13  C0H MOL     1     -10.622  -1.468  14.640  1.00  0.00    -0.152 C 
ENDBRANCH   7   8
ENDBRANCH   5   7
BRANCH   6  14
ATOM     14  C0O MOL     1     -12.615   2.555  12.492  1.00  0.00     0.092 C 
BRANCH  14  15
ATOM     15  N0P MOL     1     -13.497   2.141  11.355  1.00  0.00    -0.153 N 
ATOM     16  H0Q MOL     1     -14.341   2.690  11.343  1.00  0.00     0.257 HD
ATOM     17  H0R MOL     1     -13.029   2.406  10.494  1.00  0.00     0.244 HD
ATOM     18  H0S MOL     1     -13.774   1.169  11.358  1.00  0.00     0.246 HD
ENDBRANCH  14  15
ENDBRANCH   6  14
BRANCH   4  19
ATOM     19  C0A MOL     1      -7.945   0.531  11.857  1.00  0.00    -0.219 C 
BRANCH  19  20
ATOM     20  C0B MOL     1      -7.484   0.229  10.394  1.00  0.00     0.819 C 
ATOM     21  N0C MOL     1      -8.162   0.780   9.434  1.00  0.00    -0.993 N 
ATOM     22  H13 MOL     1      -8.912   1.405   9.719  1.00  0.00     0.395 HD
ATOM     23  H14 MOL     1      -7.964   0.556   8.476  1.00  0.00     0.440 HD
ATOM     24  O0D MOL     1      -6.479  -0.425  10.181  1.00  0.00    -0.614 OA
ENDBRANCH  19  20
ENDBRANCH   4  19
BRANCH   1  25
ATOM     25  C01 MOL     1     -11.593   5.215  11.749  1.00  0.00    -0.066 C 
ATOM     26  C00 MOL     1     -11.593   6.103  13.085  1.00  0.00    -0.126 C 
ENDBRANCH   1  25
BRANCH   2  27
ATOM     27  C04 MOL     1      -8.529   5.376  11.203  1.00  0.00    -0.266 C 
BRANCH  27  28
ATOM     28  C05 MOL     1      -8.566   5.739   9.739  1.00  0.00     0.870 C 
ATOM     29  O06 MOL     1      -8.991   5.011   8.864  1.00  0.00    -0.820 OA
ATOM     30  O07 MOL     1      -8.198   6.918   9.413  1.00  0.00    -0.676 OA
ENDBRANCH  27  28
ENDBRANCH   2  27
TORSDOF 9
ENDMDL
MODEL 13
REMARK VINA RESULT:      -5.2     18.766     21.595
REMARK  9 active torsions:
REMARK  status: ('A' for Active; 'I' for Inactive)
REMARK    1  A    between atoms: C01_2  and  C02_3 
REMARK    2  A    between atoms: C03_4  and  C04_5 
REMARK    3  A    between atoms: C04_5  and  C05_6 
REMARK    4  A    between atoms: C09_10  and  C0A_11 
REMARK    5  A    between atoms: C0A_11  and  C0B_12 
REMARK       I    between atoms: C0B_12  and  N0C_13 
REMARK    6  A    between atoms: C0E_15  and  C0F_16 
REMARK    7  A    between atoms: C0F_16  and  C0G_17 
REMARK    8  A    between atoms: C0N_23  and  C0O_24 
REMARK    9  A    between atoms: C0O_24  and  N0P_25 
ROOT
ATOM      1  C02 MOL     1     -10.749   0.340  12.433  1.00  0.00    -0.044 C 
ATOM      2  C03 MOL     1      -9.643   0.620  11.618  1.00  0.00     0.129 C 
ATOM      3  C08 MOL     1      -9.608   1.752  10.709  1.00  0.00    -0.316 C 
ATOM      4  C09 MOL     1     -10.650   2.659  10.757  1.00  0.00     0.109 C 
ATOM      5  C0E MOL     1     -11.786   2.413  11.473  1.00  0.00    -0.064 C 
ATOM      6  C0N MOL     1     -11.800   1.327  12.381  1.00  0.00    -0.120 C 
ENDROOT
BRANCH   5   7
ATOM      7  C0F MOL     1     -12.939   3.401  11.387  1.00  0.00     0.047 C 
BRANCH   7   8
ATOM      8  C0G MOL     1     -14.038   3.178  10.384  1.00  0.00     0.171 C 
ATOM      9  C0M MOL     1     -14.352   1.887   9.911  1.00  0.00    -0.195 C 
ATOM     10  C0K MOL     1     -15.379   1.691   8.952  1.00  0.00    -0.062 C 
ATOM     11  C0J MOL     1     -15.995   2.765   8.304  1.00  0.00    -0.135 C 
ATOM     12  C0I MOL     1     -15.630   4.061   8.780  1.00  0.00    -0.071 C 
ATOM     13  C0H MOL     1     -14.723   4.201   9.808  1.00  0.00    -0.152 C 
ENDBRANCH   7   8
ENDBRANCH   5   7
BRANCH   6  14
ATOM     14  C0O MOL     1     -13.045   1.047  13.285  1.00  0.00     0.092 C 
BRANCH  14  15
ATOM     15  N0P MOL     1     -13.072   1.727  14.619  1.00  0.00    -0.153 N 
ATOM     16  H0Q MOL     1     -13.544   2.614  14.555  1.00  0.00     0.257 HD
ATOM     17  H0R MOL     1     -13.675   1.181  15.227  1.00  0.00     0.244 HD
ATOM     18  H0S MOL     1     -12.166   1.901  15.030  1.00  0.00     0.246 HD
ENDBRANCH  14  15
ENDBRANCH   6  14
BRANCH   4  19
ATOM     19  C0A MOL     1     -10.422   3.987   9.998  1.00  0.00    -0.219 C 
BRANCH  19  20
ATOM     20  C0B MOL     1      -8.925   4.406   9.831  1.00  0.00     0.819 C 
ATOM     21  N0C MOL     1      -8.231   4.572  10.915  1.00  0.00    -0.993 N 
ATOM     22  H13 MOL     1      -8.711   4.366  11.788  1.00  0.00     0.395 HD
ATOM     23  H14 MOL     1      -7.292   4.921  10.871  1.00  0.00     0.440 HD
ATOM     24  O0D MOL     1      -8.422   4.485   8.725  1.00  0.00    -0.614 OA
ENDBRANCH  19  20
ENDBRANCH   4  19
BRANCH   1  25
ATOM     25  C01 MOL     1     -10.825  -0.887  13.367  1.00  0.00    -0.066 C 
ATOM     26  C00 MOL     1     -10.206  -0.582  14.816  1.00  0.00    -0.126 C 
ENDBRANCH   1  25
BRANCH   2  27
ATOM     27  C04 MOL     1      -8.418  -0.257  11.490  1.00  0.00    -0.266 C 
BRANCH  27  28
ATOM     28  C05 MOL     1      -7.239   0.380  10.800  1.00  0.00     0.870 C 
ATOM     29  O06 MOL     1      -6.807   1.486  11.063  1.00  0.00    -0.820 OA
ATOM     30  O07 MOL     1      -6.608  -0.320   9.938  1.00  0.00    -0.676 OA
ENDBRANCH  27  28
ENDBRANCH   2  27
TORSDOF 9
ENDMDL
MODEL 14
REMARK VINA RESULT:      -5.1     16.415     19.915
REMARK  9 active torsions:
REMARK  status: ('A' for Active; 'I' for Inactive)
REMARK    1  A    between atoms: C01_2  and  C02_3 
REMARK    2  A    between atoms: C03_4  and  C04_5 
REMARK    3  A    between atoms: C04_5  and  C05_6 
REMARK    4  A    between atoms: C09_10  and  C0A_11 
REMARK    5  A    between atoms: C0A_11  and  C0B_12 
REMARK       I    between atoms: C0B_12  and  N0C_13 
REMARK    6  A    between atoms: C0E_15  and  C0F_16 
REMARK    7  A    between atoms: C0F_16  and  C0G_17 
REMARK    8  A    between atoms: C0N_23  and  C0O_24 
REMARK    9  A    between atoms: C0O_24  and  N0P_25 
ROOT
ATOM      1  C02 MOL     1      -4.663   8.027 -21.424  1.00  0.00    -0.044 C 
ATOM      2  C03 MOL     1      -3.368   8.552 -21.318  1.00  0.00     0.129 C 
ATOM      3  C08 MOL     1      -2.708   9.233 -22.419  1.00  0.00    -0.316 C 
ATOM      4  C09 MOL     1      -3.442   9.490 -23.561  1.00  0.00     0.109 C 
ATOM      5  C0E MOL     1      -4.680   8.949 -23.758  1.00  0.00    -0.064 C 
ATOM      6  C0N MOL     1      -5.329   8.316 -22.671  1.00  0.00    -0.120 C 
ENDROOT
BRANCH   5   7
ATOM      7  C0F MOL     1      -5.381   9.178 -25.088  1.00  0.00     0.047 C 
BRANCH   7   8
ATOM      8  C0G MOL     1      -5.268   8.147 -26.177  1.00  0.00     0.171 C 
ATOM      9  C0M MOL     1      -6.367   7.346 -26.549  1.00  0.00    -0.195 C 
ATOM     10  C0K MOL     1      -6.244   6.364 -27.566  1.00  0.00    -0.062 C 
ATOM     11  C0J MOL     1      -5.004   6.024 -28.114  1.00  0.00    -0.135 C 
ATOM     12  C0I MOL     1      -3.904   6.829 -27.691  1.00  0.00    -0.071 C 
ATOM     13  C0H MOL     1      -4.092   7.862 -26.797  1.00  0.00    -0.152 C 
ENDBRANCH   7   8
ENDBRANCH   5   7
BRANCH   6  14
ATOM     14  C0O MOL     1      -6.779   7.750 -22.817  1.00  0.00     0.092 C 
BRANCH  14  15
ATOM     15  N0P MOL     1      -6.902   6.288 -23.119  1.00  0.00    -0.153 N 
ATOM     16  H0Q MOL     1      -7.534   6.136 -23.887  1.00  0.00     0.257 HD
ATOM     17  H0R MOL     1      -6.007   5.976 -23.484  1.00  0.00     0.244 HD
ATOM     18  H0S MOL     1      -7.224   5.717 -22.350  1.00  0.00     0.246 HD
ENDBRANCH  14  15
ENDBRANCH   6  14
BRANCH   4  19
ATOM     19  C0A MOL     1      -2.798  10.470 -24.569  1.00  0.00    -0.219 C 
BRANCH  19  20
ATOM     20  C0B MOL     1      -3.008  11.985 -24.247  1.00  0.00     0.819 C 
ATOM     21  N0C MOL     1      -4.130  12.520 -24.619  1.00  0.00    -0.993 N 
ATOM     22  H13 MOL     1      -4.804  11.891 -25.050  1.00  0.00     0.395 HD
ATOM     23  H14 MOL     1      -4.285  13.506 -24.514  1.00  0.00     0.440 HD
ATOM     24  O0D MOL     1      -2.183  12.602 -23.598  1.00  0.00    -0.614 OA
ENDBRANCH  19  20
ENDBRANCH   4  19
BRANCH   1  25
ATOM     25  C01 MOL     1      -5.362   7.256 -20.283  1.00  0.00    -0.066 C 
ATOM     26  C00 MOL     1      -6.059   8.242 -19.227  1.00  0.00    -0.126 C 
ENDBRANCH   1  25
BRANCH   2  27
ATOM     27  C04 MOL     1      -2.462   8.386 -20.120  1.00  0.00    -0.266 C 
BRANCH  27  28
ATOM     28  C05 MOL     1      -1.791   7.041 -20.001  1.00  0.00     0.870 C 
ATOM     29  O06 MOL     1      -1.692   6.242 -20.913  1.00  0.00    -0.820 OA
ATOM     30  O07 MOL     1      -1.222   6.758 -18.893  1.00  0.00    -0.676 OA
ENDBRANCH  27  28
ENDBRANCH   2  27
TORSDOF 9
ENDMDL
MODEL 15
REMARK VINA RESULT:      -5.0     25.636     27.872
REMARK  9 active torsions:
REMARK  status: ('A' for Active; 'I' for Inactive)
REMARK    1  A    between atoms: C01_2  and  C02_3 
REMARK    2  A    between atoms: C03_4  and  C04_5 
REMARK    3  A    between atoms: C04_5  and  C05_6 
REMARK    4  A    between atoms: C09_10  and  C0A_11 
REMARK    5  A    between atoms: C0A_11  and  C0B_12 
REMARK       I    between atoms: C0B_12  and  N0C_13 
REMARK    6  A    between atoms: C0E_15  and  C0F_16 
REMARK    7  A    between atoms: C0F_16  and  C0G_17 
REMARK    8  A    between atoms: C0N_23  and  C0O_24 
REMARK    9  A    between atoms: C0O_24  and  N0P_25 
ROOT
ATOM      1  C02 MOL     1     -27.616   5.167 -10.507  1.00  0.00    -0.044 C 
ATOM      2  C03 MOL     1     -28.094   4.681  -9.281  1.00  0.00     0.129 C 
ATOM      3  C08 MOL     1     -27.255   3.945  -8.352  1.00  0.00    -0.316 C 
ATOM      4  C09 MOL     1     -25.905   3.844  -8.630  1.00  0.00     0.109 C 
ATOM      5  C0E MOL     1     -25.388   4.231  -9.833  1.00  0.00    -0.064 C 
ATOM      6  C0N MOL     1     -26.202   4.977 -10.719  1.00  0.00    -0.120 C 
ENDROOT
BRANCH   5   7
ATOM      7  C0F MOL     1     -23.914   3.983 -10.114  1.00  0.00     0.047 C 
BRANCH   7   8
ATOM      8  C0G MOL     1     -23.494   2.731 -10.835  1.00  0.00     0.171 C 
ATOM      9  C0M MOL     1     -23.181   1.548 -10.134  1.00  0.00    -0.195 C 
ATOM     10  C0K MOL     1     -22.768   0.379 -10.824  1.00  0.00    -0.062 C 
ATOM     11  C0J MOL     1     -22.481   0.395 -12.192  1.00  0.00    -0.135 C 
ATOM     12  C0I MOL     1     -22.775   1.618 -12.868  1.00  0.00    -0.071 C 
ATOM     13  C0H MOL     1     -23.301   2.691 -12.180  1.00  0.00    -0.152 C 
ENDBRANCH   7   8
ENDBRANCH   5   7
BRANCH   6  14
ATOM     14  C0O MOL     1     -25.637   5.514 -12.074  1.00  0.00     0.092 C 
BRANCH  14  15
ATOM     15  N0P MOL     1     -25.086   6.907 -12.067  1.00  0.00    -0.153 N 
ATOM     16  H0Q MOL     1     -24.081   6.890 -12.125  1.00  0.00     0.257 HD
ATOM     17  H0R MOL     1     -25.367   7.350 -12.936  1.00  0.00     0.244 HD
ATOM     18  H0S MOL     1     -25.330   7.460 -11.257  1.00  0.00     0.246 HD
ENDBRANCH  14  15
ENDBRANCH   6  14
BRANCH   4  19
ATOM     19  C0A MOL     1     -25.018   3.322  -7.477  1.00  0.00    -0.219 C 
BRANCH  19  20
ATOM     20  C0B MOL     1     -25.465   1.957  -6.861  1.00  0.00     0.819 C 
ATOM     21  N0C MOL     1     -24.641   0.960  -6.967  1.00  0.00    -0.993 N 
ATOM     22  H13 MOL     1     -23.746   1.166  -7.404  1.00  0.00     0.395 HD
ATOM     23  H14 MOL     1     -24.910   0.042  -6.665  1.00  0.00     0.440 HD
ATOM     24  O0D MOL     1     -26.507   1.870  -6.235  1.00  0.00    -0.614 OA
ENDBRANCH  19  20
ENDBRANCH   4  19
BRANCH   1  25
ATOM     25  C01 MOL     1     -28.505   5.907 -11.530  1.00  0.00    -0.066 C 
ATOM     26  C00 MOL     1     -29.256   4.893 -12.521  1.00  0.00    -0.126 C 
ENDBRANCH   1  25
BRANCH   2  27
ATOM     27  C04 MOL     1     -29.533   4.753  -8.824  1.00  0.00    -0.266 C 
BRANCH  27  28
ATOM     28  C05 MOL     1     -29.811   5.750  -7.727  1.00  0.00     0.870 C 
ATOM     29  O06 MOL     1     -30.218   5.455  -6.620  1.00  0.00    -0.820 OA
ATOM     30  O07 MOL     1     -29.526   6.975  -7.954  1.00  0.00    -0.676 OA
ENDBRANCH  27  28
ENDBRANCH   2  27
TORSDOF 9
ENDMDL
MODEL 16
REMARK VINA RESULT:      -4.9     16.488     20.095
REMARK  9 active torsions:
REMARK  status: ('A' for Active; 'I' for Inactive)
REMARK    1  A    between atoms: C01_2  and  C02_3 
REMARK    2  A    between atoms: C03_4  and  C04_5 
REMARK    3  A    between atoms: C04_5  and  C05_6 
REMARK    4  A    between atoms: C09_10  and  C0A_11 
REMARK    5  A    between atoms: C0A_11  and  C0B_12 
REMARK       I    between atoms: C0B_12  and  N0C_13 
REMARK    6  A    between atoms: C0E_15  and  C0F_16 
REMARK    7  A    between atoms: C0F_16  and  C0G_17 
REMARK    8  A    between atoms: C0N_23  and  C0O_24 
REMARK    9  A    between atoms: C0O_24  and  N0P_25 
ROOT
ATOM      1  C02 MOL     1      -5.315   8.494 -22.825  1.00  0.00    -0.044 C 
ATOM      2  C03 MOL     1      -4.449   8.917 -21.807  1.00  0.00     0.129 C 
ATOM      3  C08 MOL     1      -3.124   9.446 -22.077  1.00  0.00    -0.316 C 
ATOM      4  C09 MOL     1      -2.765   9.666 -23.394  1.00  0.00     0.109 C 
ATOM      5  C0E MOL     1      -3.528   9.215 -24.432  1.00  0.00    -0.064 C 
ATOM      6  C0N MOL     1      -4.831   8.731 -24.163  1.00  0.00    -0.120 C 
ENDROOT
BRANCH   5   7
ATOM      7  C0F MOL     1      -3.014   9.389 -25.853  1.00  0.00     0.047 C 
BRANCH   7   8
ATOM      8  C0G MOL     1      -2.323   8.243 -26.541  1.00  0.00     0.171 C 
ATOM      9  C0M MOL     1      -3.029   7.353 -27.377  1.00  0.00    -0.195 C 
ATOM     10  C0K MOL     1      -2.369   6.266 -28.007  1.00  0.00    -0.062 C 
ATOM     11  C0J MOL     1      -1.052   5.923 -27.692  1.00  0.00    -0.135 C 
ATOM     12  C0I MOL     1      -0.375   6.823 -26.815  1.00  0.00    -0.071 C 
ATOM     13  C0H MOL     1      -1.014   7.943 -26.329  1.00  0.00    -0.152 C 
ENDBRANCH   7   8
ENDBRANCH   5   7
BRANCH   6  14
ATOM     14  C0O MOL     1      -5.777   8.276 -25.322  1.00  0.00     0.092 C 
BRANCH  14  15
ATOM     15  N0P MOL     1      -6.660   9.328 -25.920  1.00  0.00    -0.153 N 
ATOM     16  H0Q MOL     1      -7.575   9.302 -25.500  1.00  0.00     0.257 HD
ATOM     17  H0R MOL     1      -6.294  10.232 -25.635  1.00  0.00     0.244 HD
ATOM     18  H0S MOL     1      -6.788   9.263 -26.920  1.00  0.00     0.246 HD
ENDBRANCH  14  15
ENDBRANCH   6  14
BRANCH   4  19
ATOM     19  C0A MOL     1      -1.482  10.501 -23.611  1.00  0.00    -0.219 C 
BRANCH  19  20
ATOM     20  C0B MOL     1      -1.587  12.001 -23.186  1.00  0.00     0.819 C 
ATOM     21  N0C MOL     1      -2.517  12.713 -23.747  1.00  0.00    -0.993 N 
ATOM     22  H13 MOL     1      -3.134  12.217 -24.386  1.00  0.00     0.395 HD
ATOM     23  H14 MOL     1      -2.577  13.699 -23.575  1.00  0.00     0.440 HD
ATOM     24  O0D MOL     1      -0.878  12.447 -22.302  1.00  0.00    -0.614 OA
ENDBRANCH  19  20
ENDBRANCH   4  19
BRANCH   1  25
ATOM     25  C01 MOL     1      -6.707   7.881 -22.555  1.00  0.00    -0.066 C 
ATOM     26  C00 MOL     1      -6.656   6.280 -22.474  1.00  0.00    -0.126 C 
ENDBRANCH   1  25
BRANCH   2  27
ATOM     27  C04 MOL     1      -4.721   8.777 -20.326  1.00  0.00    -0.266 C 
BRANCH  27  28
ATOM     28  C05 MOL     1      -4.508   7.396 -19.760  1.00  0.00     0.870 C 
ATOM     29  O06 MOL     1      -3.452   6.795 -19.797  1.00  0.00    -0.820 OA
ATOM     30  O07 MOL     1      -5.482   6.857 -19.132  1.00  0.00    -0.676 OA
ENDBRANCH  27  28
ENDBRANCH   2  27
TORSDOF 9
ENDMDL
MODEL 17
REMARK VINA RESULT:      -4.9     16.952     19.321
REMARK  9 active torsions:
REMARK  status: ('A' for Active; 'I' for Inactive)
REMARK    1  A    between atoms: C01_2  and  C02_3 
REMARK    2  A    between atoms: C03_4  and  C04_5 
REMARK    3  A    between atoms: C04_5  and  C05_6 
REMARK    4  A    between atoms: C09_10  and  C0A_11 
REMARK    5  A    between atoms: C0A_11  and  C0B_12 
REMARK       I    between atoms: C0B_12  and  N0C_13 
REMARK    6  A    between atoms: C0E_15  and  C0F_16 
REMARK    7  A    between atoms: C0F_16  and  C0G_17 
REMARK    8  A    between atoms: C0N_23  and  C0O_24 
REMARK    9  A    between atoms: C0O_24  and  N0P_25 
ROOT
ATOM      1  C02 MOL     1      -9.503  25.921  -4.196  1.00  0.00    -0.044 C 
ATOM      2  C03 MOL     1     -10.065  24.672  -4.495  1.00  0.00     0.129 C 
ATOM      3  C08 MOL     1      -9.835  23.494  -3.677  1.00  0.00    -0.316 C 
ATOM      4  C09 MOL     1      -9.150  23.651  -2.487  1.00  0.00     0.109 C 
ATOM      5  C0E MOL     1      -8.518  24.818  -2.169  1.00  0.00    -0.064 C 
ATOM      6  C0N MOL     1      -8.773  25.969  -2.952  1.00  0.00    -0.120 C 
ENDROOT
BRANCH   5   7
ATOM      7  C0F MOL     1      -7.684  24.881  -0.899  1.00  0.00     0.047 C 
BRANCH   7   8
ATOM      8  C0G MOL     1      -6.212  24.574  -0.957  1.00  0.00     0.171 C 
ATOM      9  C0M MOL     1      -5.245  25.600  -0.942  1.00  0.00    -0.195 C 
ATOM     10  C0K MOL     1      -3.860  25.299  -1.015  1.00  0.00    -0.062 C 
ATOM     11  C0J MOL     1      -3.402  24.006  -1.283  1.00  0.00    -0.135 C 
ATOM     12  C0I MOL     1      -4.408  22.994  -1.328  1.00  0.00    -0.071 C 
ATOM     13  C0H MOL     1      -5.733  23.312  -1.120  1.00  0.00    -0.152 C 
ENDBRANCH   7   8
ENDBRANCH   5   7
BRANCH   6  14
ATOM     14  C0O MOL     1      -8.139  27.350  -2.586  1.00  0.00     0.092 C 
BRANCH  14  15
ATOM     15  N0P MOL     1      -6.834  27.685  -3.242  1.00  0.00    -0.153 N 
ATOM     16  H0Q MOL     1      -6.972  27.898  -4.216  1.00  0.00     0.257 HD
ATOM     17  H0R MOL     1      -6.513  28.565  -2.849  1.00  0.00     0.244 HD
ATOM     18  H0S MOL     1      -6.131  26.961  -3.191  1.00  0.00     0.246 HD
ENDBRANCH  14  15
ENDBRANCH   6  14
BRANCH   4  19
ATOM     19  C0A MOL     1      -9.194  22.444  -1.522  1.00  0.00    -0.219 C 
BRANCH  19  20
ATOM     20  C0B MOL     1     -10.254  22.550  -0.377  1.00  0.00     0.819 C 
ATOM     21  N0C MOL     1      -9.808  22.589   0.841  1.00  0.00    -0.993 N 
ATOM     22  H13 MOL     1      -8.796  22.597   0.946  1.00  0.00     0.395 HD
ATOM     23  H14 MOL     1     -10.443  22.572   1.618  1.00  0.00     0.440 HD
ATOM     24  O0D MOL     1     -11.437  22.676  -0.635  1.00  0.00    -0.614 OA
ENDBRANCH  19  20
ENDBRANCH   4  19
BRANCH   1  25
ATOM     25  C01 MOL     1      -9.695  27.171  -5.081  1.00  0.00    -0.066 C 
ATOM     26  C00 MOL     1     -11.085  27.914  -4.784  1.00  0.00    -0.126 C 
ENDBRANCH   1  25
BRANCH   2  27
ATOM     27  C04 MOL     1     -10.870  24.360  -5.737  1.00  0.00    -0.266 C 
BRANCH  27  28
ATOM     28  C05 MOL     1     -10.072  24.257  -7.013  1.00  0.00     0.870 C 
ATOM     29  O06 MOL     1      -8.873  24.062  -7.056  1.00  0.00    -0.820 OA
ATOM     30  O07 MOL     1     -10.713  24.299  -8.117  1.00  0.00    -0.676 OA
ENDBRANCH  27  28
ENDBRANCH   2  27
TORSDOF 9
ENDMDL
MODEL 18
REMARK VINA RESULT:      -4.8      4.526      6.254
REMARK  9 active torsions:
REMARK  status: ('A' for Active; 'I' for Inactive)
REMARK    1  A    between atoms: C01_2  and  C02_3 
REMARK    2  A    between atoms: C03_4  and  C04_5 
REMARK    3  A    between atoms: C04_5  and  C05_6 
REMARK    4  A    between atoms: C09_10  and  C0A_11 
REMARK    5  A    between atoms: C0A_11  and  C0B_12 
REMARK       I    between atoms: C0B_12  and  N0C_13 
REMARK    6  A    between atoms: C0E_15  and  C0F_16 
REMARK    7  A    between atoms: C0F_16  and  C0G_17 
REMARK    8  A    between atoms: C0N_23  and  C0O_24 
REMARK    9  A    between atoms: C0O_24  and  N0P_25 
ROOT
ATOM      1  C02 MOL     1       3.899  10.778  -2.375  1.00  0.00    -0.044 C 
ATOM      2  C03 MOL     1       3.213  11.118  -3.549  1.00  0.00     0.129 C 
ATOM      3  C08 MOL     1       1.764  11.083  -3.646  1.00  0.00    -0.316 C 
ATOM      4  C09 MOL     1       1.040  10.838  -2.494  1.00  0.00     0.109 C 
ATOM      5  C0E MOL     1       1.641  10.433  -1.338  1.00  0.00    -0.064 C 
ATOM      6  C0N MOL     1       3.051  10.502  -1.241  1.00  0.00    -0.120 C 
ENDROOT
BRANCH   5   7
ATOM      7  C0F MOL     1       0.772  10.068  -0.145  1.00  0.00     0.047 C 
BRANCH   7   8
ATOM      8  C0G MOL     1       0.438  11.116   0.882  1.00  0.00     0.171 C 
ATOM      9  C0M MOL     1      -0.106  10.770   2.136  1.00  0.00    -0.195 C 
ATOM     10  C0K MOL     1      -0.434  11.768   3.090  1.00  0.00    -0.062 C 
ATOM     11  C0J MOL     1      -0.404  13.129   2.770  1.00  0.00    -0.135 C 
ATOM     12  C0I MOL     1       0.118  13.446   1.480  1.00  0.00    -0.071 C 
ATOM     13  C0H MOL     1       0.550  12.448   0.633  1.00  0.00    -0.152 C 
ENDBRANCH   7   8
ENDBRANCH   5   7
BRANCH   6  14
ATOM     14  C0O MOL     1       3.788  10.126   0.086  1.00  0.00     0.092 C 
BRANCH  14  15
ATOM     15  N0P MOL     1       4.115   8.678   0.285  1.00  0.00    -0.153 N 
ATOM     16  H0Q MOL     1       4.876   8.402  -0.315  1.00  0.00     0.257 HD
ATOM     17  H0R MOL     1       4.501   8.578   1.219  1.00  0.00     0.244 HD
ATOM     18  H0S MOL     1       3.352   8.038   0.113  1.00  0.00     0.246 HD
ENDBRANCH  14  15
ENDBRANCH   6  14
BRANCH   4  19
ATOM     19  C0A MOL     1      -0.480  11.108  -2.586  1.00  0.00    -0.219 C 
BRANCH  19  20
ATOM     20  C0B MOL     1      -1.370   9.834  -2.764  1.00  0.00     0.819 C 
ATOM     21  N0C MOL     1      -0.883   8.867  -3.479  1.00  0.00    -0.993 N 
ATOM     22  H13 MOL     1       0.064   9.001  -3.826  1.00  0.00     0.395 HD
ATOM     23  H14 MOL     1      -1.442   8.062  -3.696  1.00  0.00     0.440 HD
ATOM     24  O0D MOL     1      -2.434   9.734  -2.181  1.00  0.00    -0.614 OA
ENDBRANCH  19  20
ENDBRANCH   4  19
BRANCH   1  25
ATOM     25  C01 MOL     1       5.440  10.761  -2.268  1.00  0.00    -0.066 C 
ATOM     26  C00 MOL     1       6.065   9.377  -2.785  1.00  0.00    -0.126 C 
ENDBRANCH   1  25
BRANCH   2  27
ATOM     27  C04 MOL     1       3.869  11.447  -4.871  1.00  0.00    -0.266 C 
BRANCH  27  28
ATOM     28  C05 MOL     1       4.810  12.625  -4.849  1.00  0.00     0.870 C 
ATOM     29  O06 MOL     1       5.915  12.628  -5.355  1.00  0.00    -0.820 OA
ATOM     30  O07 MOL     1       4.384  13.713  -4.331  1.00  0.00    -0.676 OA
ENDBRANCH  27  28
ENDBRANCH   2  27
TORSDOF 9
ENDMDL
MODEL 19
REMARK VINA RESULT:      -4.8     13.819     16.990
REMARK  9 active torsions:
REMARK  status: ('A' for Active; 'I' for Inactive)
REMARK    1  A    between atoms: C01_2  and  C02_3 
REMARK    2  A    between atoms: C03_4  and  C04_5 
REMARK    3  A    between atoms: C04_5  and  C05_6 
REMARK    4  A    between atoms: C09_10  and  C0A_11 
REMARK    5  A    between atoms: C0A_11  and  C0B_12 
REMARK       I    between atoms: C0B_12  and  N0C_13 
REMARK    6  A    between atoms: C0E_15  and  C0F_16 
REMARK    7  A    between atoms: C0F_16  and  C0G_17 
REMARK    8  A    between atoms: C0N_23  and  C0O_24 
REMARK    9  A    between atoms: C0O_24  and  N0P_25 
ROOT
ATOM      1  C02 MOL     1      -8.074  -6.432  -0.058  1.00  0.00    -0.044 C 
ATOM      2  C03 MOL     1      -9.397  -5.994  -0.206  1.00  0.00     0.129 C 
ATOM      3  C08 MOL     1      -9.744  -4.784  -0.931  1.00  0.00    -0.316 C 
ATOM      4  C09 MOL     1      -8.740  -4.122  -1.612  1.00  0.00     0.109 C 
ATOM      5  C0E MOL     1      -7.425  -4.451  -1.455  1.00  0.00    -0.064 C 
ATOM      6  C0N MOL     1      -7.097  -5.649  -0.776  1.00  0.00    -0.120 C 
ENDROOT
BRANCH   5   7
ATOM      7  C0F MOL     1      -6.367  -3.604  -2.144  1.00  0.00     0.047 C 
BRANCH   7   8
ATOM      8  C0G MOL     1      -5.765  -4.073  -3.441  1.00  0.00     0.171 C 
ATOM      9  C0M MOL     1      -4.514  -3.599  -3.886  1.00  0.00    -0.195 C 
ATOM     10  C0K MOL     1      -3.965  -4.035  -5.120  1.00  0.00    -0.062 C 
ATOM     11  C0J MOL     1      -4.704  -4.803  -6.023  1.00  0.00    -0.135 C 
ATOM     12  C0I MOL     1      -5.981  -5.239  -5.559  1.00  0.00    -0.071 C 
ATOM     13  C0H MOL     1      -6.422  -4.900  -4.297  1.00  0.00    -0.152 C 
ENDBRANCH   7   8
ENDBRANCH   5   7
BRANCH   6  14
ATOM     14  C0O MOL     1      -5.612  -6.116  -0.636  1.00  0.00     0.092 C 
BRANCH  14  15
ATOM     15  N0P MOL     1      -5.115  -7.091  -1.659  1.00  0.00    -0.153 N 
ATOM     16  H0Q MOL     1      -5.700  -7.910  -1.680  1.00  0.00     0.257 HD
ATOM     17  H0R MOL     1      -5.260  -6.673  -2.574  1.00  0.00     0.244 HD
ATOM     18  H0S MOL     1      -4.164  -7.405  -1.526  1.00  0.00     0.246 HD
ENDBRANCH  14  15
ENDBRANCH   6  14
BRANCH   4  19
ATOM     19  C0A MOL     1      -9.206  -3.029  -2.601  1.00  0.00    -0.219 C 
BRANCH  19  20
ATOM     20  C0B MOL     1     -10.112  -3.535  -3.771  1.00  0.00     0.819 C 
ATOM     21  N0C MOL     1     -11.124  -2.793  -4.100  1.00  0.00    -0.993 N 
ATOM     22  H13 MOL     1     -11.215  -1.913  -3.597  1.00  0.00     0.395 HD
ATOM     23  H14 MOL     1     -11.786  -3.107  -4.786  1.00  0.00     0.440 HD
ATOM     24  O0D MOL     1      -9.819  -4.539  -4.394  1.00  0.00    -0.614 OA
ENDBRANCH  19  20
ENDBRANCH   4  19
BRANCH   1  25
ATOM     25  C01 MOL     1      -7.681  -7.687   0.751  1.00  0.00    -0.066 C 
ATOM     26  C00 MOL     1      -7.849  -9.033  -0.104  1.00  0.00    -0.126 C 
ENDBRANCH   1  25
BRANCH   2  27
ATOM     27  C04 MOL     1     -10.600  -6.638   0.445  1.00  0.00    -0.266 C 
BRANCH  27  28
ATOM     28  C05 MOL     1     -10.970  -6.088   1.800  1.00  0.00     0.870 C 
ATOM     29  O06 MOL     1     -10.168  -5.661   2.608  1.00  0.00    -0.820 OA
ATOM     30  O07 MOL     1     -12.213  -5.995   2.082  1.00  0.00    -0.676 OA
ENDBRANCH  27  28
ENDBRANCH   2  27
TORSDOF 9
ENDMDL
MODEL 20
REMARK VINA RESULT:      -4.8     14.048     16.517
REMARK  9 active torsions:
REMARK  status: ('A' for Active; 'I' for Inactive)
REMARK    1  A    between atoms: C01_2  and  C02_3 
REMARK    2  A    between atoms: C03_4  and  C04_5 
REMARK    3  A    between atoms: C04_5  and  C05_6 
REMARK    4  A    between atoms: C09_10  and  C0A_11 
REMARK    5  A    between atoms: C0A_11  and  C0B_12 
REMARK       I    between atoms: C0B_12  and  N0C_13 
REMARK    6  A    between atoms: C0E_15  and  C0F_16 
REMARK    7  A    between atoms: C0F_16  and  C0G_17 
REMARK    8  A    between atoms: C0N_23  and  C0O_24 
REMARK    9  A    between atoms: C0O_24  and  N0P_25 
ROOT
ATOM      1  C02 MOL     1      -8.474  -5.449  -1.347  1.00  0.00    -0.044 C 
ATOM      2  C03 MOL     1      -8.232  -4.365  -2.202  1.00  0.00     0.129 C 
ATOM      3  C08 MOL     1      -6.921  -4.091  -2.765  1.00  0.00    -0.316 C 
ATOM      4  C09 MOL     1      -5.915  -5.015  -2.555  1.00  0.00     0.109 C 
ATOM      5  C0E MOL     1      -6.061  -6.052  -1.680  1.00  0.00    -0.064 C 
ATOM      6  C0N MOL     1      -7.348  -6.332  -1.162  1.00  0.00    -0.120 C 
ENDROOT
BRANCH   5   7
ATOM      7  C0F MOL     1      -4.872  -6.961  -1.411  1.00  0.00     0.047 C 
BRANCH   7   8
ATOM      8  C0G MOL     1      -3.879  -6.593  -0.343  1.00  0.00     0.171 C 
ATOM      9  C0M MOL     1      -2.497  -6.813  -0.516  1.00  0.00    -0.195 C 
ATOM     10  C0K MOL     1      -1.571  -6.478   0.506  1.00  0.00    -0.062 C 
ATOM     11  C0J MOL     1      -1.992  -6.090   1.781  1.00  0.00    -0.135 C 
ATOM     12  C0I MOL     1      -3.399  -5.911   1.936  1.00  0.00    -0.071 C 
ATOM     13  C0H MOL     1      -4.255  -6.120   0.875  1.00  0.00    -0.152 C 
ENDBRANCH   7   8
ENDBRANCH   5   7
BRANCH   6  14
ATOM     14  C0O MOL     1      -7.588  -7.555  -0.218  1.00  0.00     0.092 C 
BRANCH  14  15
ATOM     15  N0P MOL     1      -7.419  -7.313   1.251  1.00  0.00    -0.153 N 
ATOM     16  H0Q MOL     1      -6.723  -7.932   1.633  1.00  0.00     0.257 HD
ATOM     17  H0R MOL     1      -7.004  -6.393   1.362  1.00  0.00     0.244 HD
ATOM     18  H0S MOL     1      -8.257  -7.428   1.804  1.00  0.00     0.246 HD
ENDBRANCH  14  15
ENDBRANCH   6  14
BRANCH   4  19
ATOM     19  C0A MOL     1      -4.643  -4.831  -3.415  1.00  0.00    -0.219 C 
BRANCH  19  20
ATOM     20  C0B MOL     1      -4.899  -4.376  -4.889  1.00  0.00     0.819 C 
ATOM     21  N0C MOL     1      -4.418  -3.224  -5.245  1.00  0.00    -0.993 N 
ATOM     22  H13 MOL     1      -3.870  -2.733  -4.543  1.00  0.00     0.395 HD
ATOM     23  H14 MOL     1      -4.622  -2.845  -6.151  1.00  0.00     0.440 HD
ATOM     24  O0D MOL     1      -5.451  -5.118  -5.681  1.00  0.00    -0.614 OA
ENDBRANCH  19  20
ENDBRANCH   4  19
BRANCH   1  25
ATOM     25  C01 MOL     1      -9.847  -5.727  -0.698  1.00  0.00    -0.066 C 
ATOM     26  C00 MOL     1     -10.060  -4.885   0.650  1.00  0.00    -0.126 C 
ENDBRANCH   1  25
BRANCH   2  27
ATOM     27  C04 MOL     1      -9.243  -3.298  -2.554  1.00  0.00    -0.266 C 
BRANCH  27  28
ATOM     28  C05 MOL     1     -10.086  -3.585  -3.771  1.00  0.00     0.870 C 
ATOM     29  O06 MOL     1     -11.054  -2.928  -4.104  1.00  0.00    -0.820 OA
ATOM     30  O07 MOL     1      -9.710  -4.532  -4.541  1.00  0.00    -0.676 OA
ENDBRANCH  27  28
ENDBRANCH   2  27
TORSDOF 9
ENDMDL
