MODEL 1
REMARK VINA RESULT:      -5.8      0.000      0.000
REMARK  9 active torsions:
REMARK  status: ('A' for Active; 'I' for Inactive)
REMARK    1  A    between atoms: C01_2  and  C02_3 
REMARK    2  A    between atoms: C03_4  and  C04_5 
REMARK    3  A    between atoms: C04_5  and  C05_6 
REMARK    4  A    between atoms: C09_10  and  C0A_11 
REMARK    5  A    between atoms: C0A_11  and  C0B_12 
REMARK       I    between atoms: C0B_12  and  N0C_13 
REMARK    6  A    between atoms: C0E_15  and  C0F_16 
REMARK    7  A    between atoms: C0F_16  and  C0G_17 
REMARK    8  A    between atoms: C0N_23  and  C0O_24 
REMARK    9  A    between atoms: C0O_24  and  N0P_25 
ROOT
ATOM      1  C02 MOL     1       1.073   6.437  -4.535  1.00  0.00    -0.044 C 
ATOM      2  C03 MOL     1       1.697   6.578  -5.782  1.00  0.00     0.129 C 
ATOM      3  C08 MOL     1       1.677   7.822  -6.531  1.00  0.00    -0.316 C 
ATOM      4  C09 MOL     1       1.139   8.941  -5.922  1.00  0.00     0.109 C 
ATOM      5  C0E MOL     1       0.455   8.860  -4.744  1.00  0.00    -0.064 C 
ATOM      6  C0N MOL     1       0.508   7.654  -4.005  1.00  0.00    -0.120 C 
ENDROOT
BRANCH   5   7
ATOM      7  C0F MOL     1      -0.210  10.111  -4.192  1.00  0.00     0.047 C 
BRANCH   7   8
ATOM      8  C0G MOL     1       0.452  10.878  -3.080  1.00  0.00     0.171 C 
ATOM      9  C0M MOL     1       1.849  11.063  -3.044  1.00  0.00    -0.195 C 
ATOM     10  C0K MOL     1       2.464  11.774  -1.981  1.00  0.00    -0.062 C 
ATOM     11  C0J MOL     1       1.748  12.162  -0.845  1.00  0.00    -0.135 C 
ATOM     12  C0I MOL     1       0.341  11.929  -0.896  1.00  0.00    -0.071 C 
ATOM     13  C0H MOL     1      -0.236  11.354  -2.008  1.00  0.00    -0.152 C 
ENDBRANCH   7   8
ENDBRANCH   5   7
BRANCH   6  14
ATOM     14  C0O MOL     1      -0.191   7.531  -2.612  1.00  0.00     0.092 C 
BRANCH  14  15
ATOM     15  N0P MOL     1      -1.651   7.198  -2.620  1.00  0.00    -0.153 N 
ATOM     16  H0Q MOL     1      -1.815   6.339  -3.120  1.00  0.00     0.257 HD
ATOM     17  H0R MOL     1      -1.918   6.972  -1.666  1.00  0.00     0.244 HD
ATOM     18  H0S MOL     1      -2.249   7.902  -3.030  1.00  0.00     0.246 HD
ENDBRANCH  14  15
ENDBRANCH   6  14
BRANCH   4  19
ATOM     19  C0A MOL     1       1.412  10.288  -6.630  1.00  0.00    -0.219 C 
BRANCH  19  20
ATOM     20  C0B MOL     1       2.917  10.591  -6.924  1.00  0.00     0.819 C 
ATOM     21  N0C MOL     1       3.261  10.734  -8.167  1.00  0.00    -0.993 N 
ATOM     22  H13 MOL     1       2.507  10.684  -8.847  1.00  0.00     0.395 HD
ATOM     23  H14 MOL     1       4.226  10.846  -8.419  1.00  0.00     0.440 HD
ATOM     24  O0D MOL     1       3.705  10.768  -6.012  1.00  0.00    -0.614 OA
ENDBRANCH  19  20
ENDBRANCH   4  19
BRANCH   1  25
ATOM     25  C01 MOL     1       1.040   5.109  -3.748  1.00  0.00    -0.066 C 
ATOM     26  C00 MOL     1      -0.225   4.205  -4.142  1.00  0.00    -0.126 C 
ENDBRANCH   1  25
BRANCH   2  27
ATOM     27  C04 MOL     1       2.359   5.456  -6.551  1.00  0.00    -0.266 C 
BRANCH  27  28
ATOM     28  C05 MOL     1       1.538   4.871  -7.671  1.00  0.00     0.870 C 
ATOM     29  O06 MOL     1       0.498   4.261  -7.513  1.00  0.00    -0.820 OA
ATOM     30  O07 MOL     1       1.922   5.099  -8.868  1.00  0.00    -0.676 OA
ENDBRANCH  27  28
ENDBRANCH   2  27
TORSDOF 9
ENDMDL
MODEL 2
REMARK VINA RESULT:      -5.7      2.493      4.273
REMARK  9 active torsions:
REMARK  status: ('A' for Active; 'I' for Inactive)
REMARK    1  A    between atoms: C01_2  and  C02_3 
REMARK    2  A    between atoms: C03_4  and  C04_5 
REMARK    3  A    between atoms: C04_5  and  C05_6 
REMARK    4  A    between atoms: C09_10  and  C0A_11 
REMARK    5  A    between atoms: C0A_11  and  C0B_12 
REMARK       I    between atoms: C0B_12  and  N0C_13 
REMARK    6  A    between atoms: C0E_15  and  C0F_16 
REMARK    7  A    between atoms: C0F_16  and  C0G_17 
REMARK    8  A    between atoms: C0N_23  and  C0O_24 
REMARK    9  A    between atoms: C0O_24  and  N0P_25 
ROOT
ATOM      1  C02 MOL     1       2.852   6.151  -5.783  1.00  0.00    -0.044 C 
ATOM      2  C03 MOL     1       1.906   5.118  -5.753  1.00  0.00     0.129 C 
ATOM      3  C08 MOL     1       0.853   5.051  -4.754  1.00  0.00    -0.316 C 
ATOM      4  C09 MOL     1       0.703   6.120  -3.892  1.00  0.00     0.109 C 
ATOM      5  C0E MOL     1       1.628   7.122  -3.820  1.00  0.00    -0.064 C 
ATOM      6  C0N MOL     1       2.630   7.199  -4.817  1.00  0.00    -0.120 C 
ENDROOT
BRANCH   5   7
ATOM      7  C0F MOL     1       1.459   8.205  -2.767  1.00  0.00     0.047 C 
BRANCH   7   8
ATOM      8  C0G MOL     1       0.535   9.363  -3.030  1.00  0.00     0.171 C 
ATOM      9  C0M MOL     1      -0.485   9.712  -2.120  1.00  0.00    -0.195 C 
ATOM     10  C0K MOL     1      -1.362  10.795  -2.387  1.00  0.00    -0.062 C 
ATOM     11  C0J MOL     1      -1.374  11.443  -3.625  1.00  0.00    -0.135 C 
ATOM     12  C0I MOL     1      -0.352  11.044  -4.538  1.00  0.00    -0.071 C 
ATOM     13  C0H MOL     1       0.565  10.076  -4.187  1.00  0.00    -0.152 C 
ENDBRANCH   7   8
ENDBRANCH   5   7
BRANCH   6  14
ATOM     14  C0O MOL     1       3.666   8.370  -4.829  1.00  0.00     0.092 C 
BRANCH  14  15
ATOM     15  N0P MOL     1       4.858   8.221  -3.935  1.00  0.00    -0.153 N 
ATOM     16  H0Q MOL     1       4.581   8.254  -2.967  1.00  0.00     0.257 HD
ATOM     17  H0R MOL     1       5.209   7.275  -4.049  1.00  0.00     0.244 HD
ATOM     18  H0S MOL     1       5.580   8.917  -4.063  1.00  0.00     0.246 HD
ENDBRANCH  14  15
ENDBRANCH   6  14
BRANCH   4  19
ATOM     19  C0A MOL     1      -0.600   6.137  -3.061  1.00  0.00    -0.219 C 
BRANCH  19  20
ATOM     20  C0B MOL     1      -1.893   6.499  -3.862  1.00  0.00     0.819 C 
ATOM     21  N0C MOL     1      -2.960   5.803  -3.611  1.00  0.00    -0.993 N 
ATOM     22  H13 MOL     1      -2.875   5.107  -2.874  1.00  0.00     0.395 HD
ATOM     23  H14 MOL     1      -3.794   5.935  -4.152  1.00  0.00     0.440 HD
ATOM     24  O0D MOL     1      -1.908   7.451  -4.620  1.00  0.00    -0.614 OA
ENDBRANCH  19  20
ENDBRANCH   4  19
BRANCH   1  25
ATOM     25  C01 MOL     1       4.008   6.213  -6.805  1.00  0.00    -0.066 C 
ATOM     26  C00 MOL     1       3.543   6.842  -8.205  1.00  0.00    -0.126 C 
ENDBRANCH   1  25
BRANCH   2  27
ATOM     27  C04 MOL     1       1.918   3.906  -6.657  1.00  0.00    -0.266 C 
BRANCH  27  28
ATOM     28  C05 MOL     1       0.818   3.859  -7.687  1.00  0.00     0.870 C 
ATOM     29  O06 MOL     1      -0.286   3.389  -7.490  1.00  0.00    -0.820 OA
ATOM     30  O07 MOL     1       1.038   4.420  -8.814  1.00  0.00    -0.676 OA
ENDBRANCH  27  28
ENDBRANCH   2  27
TORSDOF 9
ENDMDL
MODEL 3
REMARK VINA RESULT:      -5.5     20.351     22.814
REMARK  9 active torsions:
REMARK  status: ('A' for Active; 'I' for Inactive)
REMARK    1  A    between atoms: C01_2  and  C02_3 
REMARK    2  A    between atoms: C03_4  and  C04_5 
REMARK    3  A    between atoms: C04_5  and  C05_6 
REMARK    4  A    between atoms: C09_10  and  C0A_11 
REMARK    5  A    between atoms: C0A_11  and  C0B_12 
REMARK       I    between atoms: C0B_12  and  N0C_13 
REMARK    6  A    between atoms: C0E_15  and  C0F_16 
REMARK    7  A    between atoms: C0F_16  and  C0G_17 
REMARK    8  A    between atoms: C0N_23  and  C0O_24 
REMARK    9  A    between atoms: C0O_24  and  N0P_25 
ROOT
ATOM      1  C02 MOL     1     -12.424   1.778  11.780  1.00  0.00    -0.044 C 
ATOM      2  C03 MOL     1     -11.379   2.319  11.018  1.00  0.00     0.129 C 
ATOM      3  C08 MOL     1     -10.015   1.827  11.101  1.00  0.00    -0.316 C 
ATOM      4  C09 MOL     1      -9.775   0.695  11.857  1.00  0.00     0.109 C 
ATOM      5  C0E MOL     1     -10.727   0.162  12.676  1.00  0.00    -0.064 C 
ATOM      6  C0N MOL     1     -12.060   0.624  12.566  1.00  0.00    -0.120 C 
ENDROOT
BRANCH   5   7
ATOM      7  C0F MOL     1     -10.357  -1.013  13.568  1.00  0.00     0.047 C 
BRANCH   7   8
ATOM      8  C0G MOL     1     -10.311  -0.830  15.061  1.00  0.00     0.171 C 
ATOM      9  C0M MOL     1     -10.456  -1.923  15.941  1.00  0.00    -0.195 C 
ATOM     10  C0K MOL     1     -10.428  -1.735  17.347  1.00  0.00    -0.062 C 
ATOM     11  C0J MOL     1     -10.438  -0.460  17.920  1.00  0.00    -0.135 C 
ATOM     12  C0I MOL     1     -10.327   0.627  17.002  1.00  0.00    -0.071 C 
ATOM     13  C0H MOL     1     -10.222   0.394  15.647  1.00  0.00    -0.152 C 
ENDBRANCH   7   8
ENDBRANCH   5   7
BRANCH   6  14
ATOM     14  C0O MOL     1     -13.206  -0.006  13.423  1.00  0.00     0.092 C 
BRANCH  14  15
ATOM     15  N0P MOL     1     -13.917  -1.184  12.830  1.00  0.00    -0.153 N 
ATOM     16  H0Q MOL     1     -14.280  -0.956  11.919  1.00  0.00     0.257 HD
ATOM     17  H0R MOL     1     -13.220  -1.896  12.636  1.00  0.00     0.244 HD
ATOM     18  H0S MOL     1     -14.688  -1.539  13.378  1.00  0.00     0.246 HD
ENDBRANCH  14  15
ENDBRANCH   6  14
BRANCH   4  19
ATOM     19  C0A MOL     1      -8.385   0.045  11.672  1.00  0.00    -0.219 C 
BRANCH  19  20
ATOM     20  C0B MOL     1      -7.406   0.825  10.734  1.00  0.00     0.819 C 
ATOM     21  N0C MOL     1      -7.422   0.517   9.473  1.00  0.00    -0.993 N 
ATOM     22  H13 MOL     1      -8.109  -0.179   9.193  1.00  0.00     0.395 HD
ATOM     23  H14 MOL     1      -6.758   0.924   8.841  1.00  0.00     0.440 HD
ATOM     24  O0D MOL     1      -6.729   1.740  11.167  1.00  0.00    -0.614 OA
ENDBRANCH  19  20
ENDBRANCH   4  19
BRANCH   1  25
ATOM     25  C01 MOL     1     -13.869   2.321  11.743  1.00  0.00    -0.066 C 
ATOM     26  C00 MOL     1     -14.698   1.745  10.497  1.00  0.00    -0.126 C 
ENDBRANCH   1  25
BRANCH   2  27
ATOM     27  C04 MOL     1     -11.500   3.527  10.117  1.00  0.00    -0.266 C 
BRANCH  27  28
ATOM     28  C05 MOL     1     -10.497   4.624  10.374  1.00  0.00     0.870 C 
ATOM     29  O06 MOL     1      -9.716   5.046   9.543  1.00  0.00    -0.820 OA
ATOM     30  O07 MOL     1     -10.527   5.199  11.515  1.00  0.00    -0.676 OA
ENDBRANCH  27  28
ENDBRANCH   2  27
TORSDOF 9
ENDMDL
MODEL 4
REMARK VINA RESULT:      -5.5      3.141      6.883
REMARK  9 active torsions:
REMARK  status: ('A' for Active; 'I' for Inactive)
REMARK    1  A    between atoms: C01_2  and  C02_3 
REMARK    2  A    between atoms: C03_4  and  C04_5 
REMARK    3  A    between atoms: C04_5  and  C05_6 
REMARK    4  A    between atoms: C09_10  and  C0A_11 
REMARK    5  A    between atoms: C0A_11  and  C0B_12 
REMARK       I    between atoms: C0B_12  and  N0C_13 
REMARK    6  A    between atoms: C0E_15  and  C0F_16 
REMARK    7  A    between atoms: C0F_16  and  C0G_17 
REMARK    8  A    between atoms: C0N_23  and  C0O_24 
REMARK    9  A    between atoms: C0O_24  and  N0P_25 
ROOT
ATOM      1  C02 MOL     1       3.156   8.650  -3.474  1.00  0.00    -0.044 C 
ATOM      2  C03 MOL     1       2.023   9.475  -3.497  1.00  0.00     0.129 C 
ATOM      3  C08 MOL     1       0.679   8.954  -3.673  1.00  0.00    -0.316 C 
ATOM      4  C09 MOL     1       0.507   7.583  -3.679  1.00  0.00     0.109 C 
ATOM      5  C0E MOL     1       1.567   6.725  -3.730  1.00  0.00    -0.064 C 
ATOM      6  C0N MOL     1       2.870   7.236  -3.525  1.00  0.00    -0.120 C 
ENDROOT
BRANCH   5   7
ATOM      7  C0F MOL     1       1.301   5.232  -3.853  1.00  0.00     0.047 C 
BRANCH   7   8
ATOM      8  C0G MOL     1       1.212   4.600  -5.215  1.00  0.00     0.171 C 
ATOM      9  C0M MOL     1       2.211   4.807  -6.188  1.00  0.00    -0.195 C 
ATOM     10  C0K MOL     1       2.108   4.219  -7.476  1.00  0.00    -0.062 C 
ATOM     11  C0J MOL     1       0.945   3.568  -7.896  1.00  0.00    -0.135 C 
ATOM     12  C0I MOL     1      -0.063   3.406  -6.899  1.00  0.00    -0.071 C 
ATOM     13  C0H MOL     1       0.133   3.878  -5.618  1.00  0.00    -0.152 C 
ENDBRANCH   7   8
ENDBRANCH   5   7
BRANCH   6  14
ATOM     14  C0O MOL     1       4.113   6.288  -3.494  1.00  0.00     0.092 C 
BRANCH  14  15
ATOM     15  N0P MOL     1       4.528   5.768  -2.152  1.00  0.00    -0.153 N 
ATOM     16  H0Q MOL     1       4.318   6.439  -1.432  1.00  0.00     0.257 HD
ATOM     17  H0R MOL     1       3.922   4.983  -1.929  1.00  0.00     0.244 HD
ATOM     18  H0S MOL     1       5.507   5.534  -2.066  1.00  0.00     0.246 HD
ENDBRANCH  14  15
ENDBRANCH   6  14
BRANCH   4  19
ATOM     19  C0A MOL     1      -0.953   7.087  -3.565  1.00  0.00    -0.219 C 
BRANCH  19  20
ATOM     20  C0B MOL     1      -2.004   7.933  -4.356  1.00  0.00     0.819 C 
ATOM     21  N0C MOL     1      -2.233   7.593  -5.587  1.00  0.00    -0.993 N 
ATOM     22  H13 MOL     1      -1.740   6.768  -5.921  1.00  0.00     0.395 HD
ATOM     23  H14 MOL     1      -2.834   8.149  -6.167  1.00  0.00     0.440 HD
ATOM     24  O0D MOL     1      -2.636   8.814  -3.801  1.00  0.00    -0.614 OA
ENDBRANCH  19  20
ENDBRANCH   4  19
BRANCH   1  25
ATOM     25  C01 MOL     1       4.596   9.189  -3.339  1.00  0.00    -0.066 C 
ATOM     26  C00 MOL     1       5.237   9.560  -4.762  1.00  0.00    -0.126 C 
ENDBRANCH   1  25
BRANCH   2  27
ATOM     27  C04 MOL     1       2.053  10.986  -3.459  1.00  0.00    -0.266 C 
BRANCH  27  28
ATOM     28  C05 MOL     1       2.114  11.596  -2.081  1.00  0.00     0.870 C 
ATOM     29  O06 MOL     1       1.474  11.198  -1.127  1.00  0.00    -0.820 OA
ATOM     30  O07 MOL     1       2.952  12.541  -1.888  1.00  0.00    -0.676 OA
ENDBRANCH  27  28
ENDBRANCH   2  27
TORSDOF 9
ENDMDL
MODEL 5
REMARK VINA RESULT:      -5.5     15.200     17.968
REMARK  9 active torsions:
REMARK  status: ('A' for Active; 'I' for Inactive)
REMARK    1  A    between atoms: C01_2  and  C02_3 
REMARK    2  A    between atoms: C03_4  and  C04_5 
REMARK    3  A    between atoms: C04_5  and  C05_6 
REMARK    4  A    between atoms: C09_10  and  C0A_11 
REMARK    5  A    between atoms: C0A_11  and  C0B_12 
REMARK       I    between atoms: C0B_12  and  N0C_13 
REMARK    6  A    between atoms: C0E_15  and  C0F_16 
REMARK    7  A    between atoms: C0F_16  and  C0G_17 
REMARK    8  A    between atoms: C0N_23  and  C0O_24 
REMARK    9  A    between atoms: C0O_24  and  N0P_25 
ROOT
ATOM      1  C02 MOL     1      -4.051   6.540 -19.524  1.00  0.00    -0.044 C 
ATOM      2  C03 MOL     1      -2.676   6.396 -19.754  1.00  0.00     0.129 C 
ATOM      3  C08 MOL     1      -1.995   7.050 -20.858  1.00  0.00    -0.316 C 
ATOM      4  C09 MOL     1      -2.710   7.955 -21.620  1.00  0.00     0.109 C 
ATOM      5  C0E MOL     1      -4.062   8.092 -21.496  1.00  0.00    -0.064 C 
ATOM      6  C0N MOL     1      -4.712   7.477 -20.399  1.00  0.00    -0.120 C 
ENDROOT
BRANCH   5   7
ATOM      7  C0F MOL     1      -4.798   9.021 -22.448  1.00  0.00     0.047 C 
BRANCH   7   8
ATOM      8  C0G MOL     1      -5.415   8.466 -23.704  1.00  0.00     0.171 C 
ATOM      9  C0M MOL     1      -4.872   8.744 -24.975  1.00  0.00    -0.195 C 
ATOM     10  C0K MOL     1      -5.472   8.230 -26.153  1.00  0.00    -0.062 C 
ATOM     11  C0J MOL     1      -6.712   7.584 -26.126  1.00  0.00    -0.135 C 
ATOM     12  C0I MOL     1      -7.253   7.349 -24.826  1.00  0.00    -0.071 C 
ATOM     13  C0H MOL     1      -6.570   7.750 -23.697  1.00  0.00    -0.152 C 
ENDBRANCH   7   8
ENDBRANCH   5   7
BRANCH   6  14
ATOM     14  C0O MOL     1      -6.247   7.666 -20.164  1.00  0.00     0.092 C 
BRANCH  14  15
ATOM     15  N0P MOL     1      -6.647   8.637 -19.096  1.00  0.00    -0.153 N 
ATOM     16  H0Q MOL     1      -7.600   8.936 -19.229  1.00  0.00     0.257 HD
ATOM     17  H0R MOL     1      -6.679   8.129 -18.217  1.00  0.00     0.244 HD
ATOM     18  H0S MOL     1      -6.078   9.470 -19.038  1.00  0.00     0.246 HD
ENDBRANCH  14  15
ENDBRANCH   6  14
BRANCH   4  19
ATOM     19  C0A MOL     1      -1.874   8.838 -22.575  1.00  0.00    -0.219 C 
BRANCH  19  20
ATOM     20  C0B MOL     1      -1.351  10.175 -21.956  1.00  0.00     0.819 C 
ATOM     21  N0C MOL     1      -1.768  11.280 -22.495  1.00  0.00    -0.993 N 
ATOM     22  H13 MOL     1      -2.443  11.182 -23.250  1.00  0.00     0.395 HD
ATOM     23  H14 MOL     1      -1.402  12.164 -22.194  1.00  0.00     0.440 HD
ATOM     24  O0D MOL     1      -0.654  10.167 -20.958  1.00  0.00    -0.614 OA
ENDBRANCH  19  20
ENDBRANCH   4  19
BRANCH   1  25
ATOM     25  C01 MOL     1      -4.802   5.812 -18.388  1.00  0.00    -0.066 C 
ATOM     26  C00 MOL     1      -4.589   4.223 -18.445  1.00  0.00    -0.126 C 
ENDBRANCH   1  25
BRANCH   2  27
ATOM     27  C04 MOL     1      -1.761   5.475 -18.980  1.00  0.00    -0.266 C 
BRANCH  27  28
ATOM     28  C05 MOL     1      -0.493   6.110 -18.466  1.00  0.00     0.870 C 
ATOM     29  O06 MOL     1      -0.461   7.035 -17.677  1.00  0.00    -0.820 OA
ATOM     30  O07 MOL     1       0.617   5.589 -18.823  1.00  0.00    -0.676 OA
ENDBRANCH  27  28
ENDBRANCH   2  27
TORSDOF 9
ENDMDL
MODEL 6
REMARK VINA RESULT:      -5.4      3.485      5.126
REMARK  9 active torsions:
REMARK  status: ('A' for Active; 'I' for Inactive)
REMARK    1  A    between atoms: C01_2  and  C02_3 
REMARK    2  A    between atoms: C03_4  and  C04_5 
REMARK    3  A    between atoms: C04_5  and  C05_6 
REMARK    4  A    between atoms: C09_10  and  C0A_11 
REMARK    5  A    between atoms: C0A_11  and  C0B_12 
REMARK       I    between atoms: C0B_12  and  N0C_13 
REMARK    6  A    between atoms: C0E_15  and  C0F_16 
REMARK    7  A    between atoms: C0F_16  and  C0G_17 
REMARK    8  A    between atoms: C0N_23  and  C0O_24 
REMARK    9  A    between atoms: C0O_24  and  N0P_25 
ROOT
ATOM      1  C02 MOL     1       2.873  10.858  -4.249  1.00  0.00    -0.044 C 
ATOM      2  C03 MOL     1       1.915  11.091  -5.244  1.00  0.00     0.129 C 
ATOM      3  C08 MOL     1       0.488  10.961  -5.002  1.00  0.00    -0.316 C 
ATOM      4  C09 MOL     1       0.065  10.736  -3.706  1.00  0.00     0.109 C 
ATOM      5  C0E MOL     1       0.942  10.432  -2.705  1.00  0.00    -0.064 C 
ATOM      6  C0N MOL     1       2.328  10.592  -2.939  1.00  0.00    -0.120 C 
ENDROOT
BRANCH   5   7
ATOM      7  C0F MOL     1       0.396  10.081  -1.330  1.00  0.00     0.047 C 
BRANCH   7   8
ATOM      8  C0G MOL     1       0.288  11.149  -0.275  1.00  0.00     0.171 C 
ATOM      9  C0M MOL     1       0.340  12.518  -0.607  1.00  0.00    -0.195 C 
ATOM     10  C0K MOL     1       0.255  13.516   0.398  1.00  0.00    -0.062 C 
ATOM     11  C0J MOL     1       0.297  13.196   1.758  1.00  0.00    -0.135 C 
ATOM     12  C0I MOL     1       0.279  11.802   2.062  1.00  0.00    -0.071 C 
ATOM     13  C0H MOL     1       0.229  10.863   1.053  1.00  0.00    -0.152 C 
ENDBRANCH   7   8
ENDBRANCH   5   7
BRANCH   6  14
ATOM     14  C0O MOL     1       3.373  10.335  -1.805  1.00  0.00     0.092 C 
BRANCH  14  15
ATOM     15  N0P MOL     1       3.830  11.532  -1.029  1.00  0.00    -0.153 N 
ATOM     16  H0Q MOL     1       4.749  11.816  -1.325  1.00  0.00     0.257 HD
ATOM     17  H0R MOL     1       3.241  12.314  -1.300  1.00  0.00     0.244 HD
ATOM     18  H0S MOL     1       3.864  11.406  -0.027  1.00  0.00     0.246 HD
ENDBRANCH  14  15
ENDBRANCH   6  14
BRANCH   4  19
ATOM     19  C0A MOL     1      -1.451  10.907  -3.454  1.00  0.00    -0.219 C 
BRANCH  19  20
ATOM     20  C0B MOL     1      -2.351   9.763  -4.023  1.00  0.00     0.819 C 
ATOM     21  N0C MOL     1      -1.876   8.556  -3.977  1.00  0.00    -0.993 N 
ATOM     22  H13 MOL     1      -0.970   8.450  -3.527  1.00  0.00     0.395 HD
ATOM     23  H14 MOL     1      -2.372   7.795  -4.403  1.00  0.00     0.440 HD
ATOM     24  O0D MOL     1      -3.482   9.996  -4.410  1.00  0.00    -0.614 OA
ENDBRANCH  19  20
ENDBRANCH   4  19
BRANCH   1  25
ATOM     25  C01 MOL     1       4.395  10.940  -4.500  1.00  0.00    -0.066 C 
ATOM     26  C00 MOL     1       4.938  12.448  -4.427  1.00  0.00    -0.126 C 
ENDBRANCH   1  25
BRANCH   2  27
ATOM     27  C04 MOL     1       2.227  11.385  -6.694  1.00  0.00    -0.266 C 
BRANCH  27  28
ATOM     28  C05 MOL     1       2.718  10.209  -7.500  1.00  0.00     0.870 C 
ATOM     29  O06 MOL     1       3.812  10.149  -8.027  1.00  0.00    -0.820 OA
ATOM     30  O07 MOL     1       1.964   9.180  -7.565  1.00  0.00    -0.676 OA
ENDBRANCH  27  28
ENDBRANCH   2  27
TORSDOF 9
ENDMDL
MODEL 7
REMARK VINA RESULT:      -5.3     16.475     19.212
REMARK  9 active torsions:
REMARK  status: ('A' for Active; 'I' for Inactive)
REMARK    1  A    between atoms: C01_2  and  C02_3 
REMARK    2  A    between atoms: C03_4  and  C04_5 
REMARK    3  A    between atoms: C04_5  and  C05_6 
REMARK    4  A    between atoms: C09_10  and  C0A_11 
REMARK    5  A    between atoms: C0A_11  and  C0B_12 
REMARK       I    between atoms: C0B_12  and  N0C_13 
REMARK    6  A    between atoms: C0E_15  and  C0F_16 
REMARK    7  A    between atoms: C0F_16  and  C0G_17 
REMARK    8  A    between atoms: C0N_23  and  C0O_24 
REMARK    9  A    between atoms: C0O_24  and  N0P_25 
ROOT
ATOM      1  C02 MOL     1      -5.241   9.010 -24.149  1.00  0.00    -0.044 C 
ATOM      2  C03 MOL     1      -6.190   8.093 -23.677  1.00  0.00     0.129 C 
ATOM      3  C08 MOL     1      -6.086   7.460 -22.373  1.00  0.00    -0.316 C 
ATOM      4  C09 MOL     1      -5.086   7.888 -21.520  1.00  0.00     0.109 C 
ATOM      5  C0E MOL     1      -4.091   8.723 -21.938  1.00  0.00    -0.064 C 
ATOM      6  C0N MOL     1      -4.217   9.360 -23.195  1.00  0.00    -0.120 C 
ENDROOT
BRANCH   5   7
ATOM      7  C0F MOL     1      -2.959   9.058 -20.979  1.00  0.00     0.047 C 
BRANCH   7   8
ATOM      8  C0G MOL     1      -1.776   8.135 -20.870  1.00  0.00     0.171 C 
ATOM      9  C0M MOL     1      -0.975   7.829 -21.989  1.00  0.00    -0.195 C 
ATOM     10  C0K MOL     1       0.127   6.943 -21.878  1.00  0.00    -0.062 C 
ATOM     11  C0J MOL     1       0.361   6.202 -20.716  1.00  0.00    -0.135 C 
ATOM     12  C0I MOL     1      -0.489   6.508 -19.610  1.00  0.00    -0.071 C 
ATOM     13  C0H MOL     1      -1.466   7.474 -19.722  1.00  0.00    -0.152 C 
ENDBRANCH   7   8
ENDBRANCH   5   7
BRANCH   6  14
ATOM     14  C0O MOL     1      -3.146  10.387 -23.690  1.00  0.00     0.092 C 
BRANCH  14  15
ATOM     15  N0P MOL     1      -3.351  11.815 -23.290  1.00  0.00    -0.153 N 
ATOM     16  H0Q MOL     1      -3.558  11.881 -22.307  1.00  0.00     0.257 HD
ATOM     17  H0R MOL     1      -2.456  12.287 -23.377  1.00  0.00     0.244 HD
ATOM     18  H0S MOL     1      -4.089  12.297 -23.784  1.00  0.00     0.246 HD
ENDBRANCH  14  15
ENDBRANCH   6  14
BRANCH   4  19
ATOM     19  C0A MOL     1      -5.202   7.408 -20.055  1.00  0.00    -0.219 C 
BRANCH  19  20
ATOM     20  C0B MOL     1      -5.930   8.398 -19.088  1.00  0.00     0.819 C 
ATOM     21  N0C MOL     1      -6.862   7.907 -18.330  1.00  0.00    -0.993 N 
ATOM     22  H13 MOL     1      -7.009   6.902 -18.396  1.00  0.00     0.395 HD
ATOM     23  H14 MOL     1      -7.419   8.509 -17.751  1.00  0.00     0.440 HD
ATOM     24  O0D MOL     1      -5.568   9.557 -18.997  1.00  0.00    -0.614 OA
ENDBRANCH  19  20
ENDBRANCH   4  19
BRANCH   1  25
ATOM     25  C01 MOL     1      -5.308   9.653 -25.551  1.00  0.00    -0.066 C 
ATOM     26  C00 MOL     1      -6.107  11.044 -25.539  1.00  0.00    -0.126 C 
ENDBRANCH   1  25
BRANCH   2  27
ATOM     27  C04 MOL     1      -7.357   7.563 -24.480  1.00  0.00    -0.266 C 
BRANCH  27  28
ATOM     28  C05 MOL     1      -8.496   8.532 -24.677  1.00  0.00     0.870 C 
ATOM     29  O06 MOL     1      -9.060   9.119 -23.775  1.00  0.00    -0.820 OA
ATOM     30  O07 MOL     1      -8.835   8.809 -25.877  1.00  0.00    -0.676 OA
ENDBRANCH  27  28
ENDBRANCH   2  27
TORSDOF 9
ENDMDL
MODEL 8
REMARK VINA RESULT:      -5.3     14.620     18.057
REMARK  9 active torsions:
REMARK  status: ('A' for Active; 'I' for Inactive)
REMARK    1  A    between atoms: C01_2  and  C02_3 
REMARK    2  A    between atoms: C03_4  and  C04_5 
REMARK    3  A    between atoms: C04_5  and  C05_6 
REMARK    4  A    between atoms: C09_10  and  C0A_11 
REMARK    5  A    between atoms: C0A_11  and  C0B_12 
REMARK       I    between atoms: C0B_12  and  N0C_13 
REMARK    6  A    between atoms: C0E_15  and  C0F_16 
REMARK    7  A    between atoms: C0F_16  and  C0G_17 
REMARK    8  A    between atoms: C0N_23  and  C0O_24 
REMARK    9  A    between atoms: C0O_24  and  N0P_25 
ROOT
ATOM      1  C02 MOL     1      -3.440   8.454 -21.872  1.00  0.00    -0.044 C 
ATOM      2  C03 MOL     1      -3.883   7.593 -20.858  1.00  0.00     0.129 C 
ATOM      3  C08 MOL     1      -2.992   6.684 -20.160  1.00  0.00    -0.316 C 
ATOM      4  C09 MOL     1      -1.637   6.775 -20.414  1.00  0.00     0.109 C 
ATOM      5  C0E MOL     1      -1.146   7.538 -21.434  1.00  0.00    -0.064 C 
ATOM      6  C0N MOL     1      -2.014   8.446 -22.087  1.00  0.00    -0.120 C 
ENDROOT
BRANCH   5   7
ATOM      7  C0F MOL     1       0.345   7.500 -21.731  1.00  0.00     0.047 C 
BRANCH   7   8
ATOM      8  C0G MOL     1       0.879   6.519 -22.739  1.00  0.00     0.171 C 
ATOM      9  C0M MOL     1       0.996   6.857 -24.103  1.00  0.00    -0.195 C 
ATOM     10  C0K MOL     1       1.485   5.917 -25.048  1.00  0.00    -0.062 C 
ATOM     11  C0J MOL     1       1.700   4.578 -24.710  1.00  0.00    -0.135 C 
ATOM     12  C0I MOL     1       1.539   4.259 -23.328  1.00  0.00    -0.071 C 
ATOM     13  C0H MOL     1       1.190   5.235 -22.418  1.00  0.00    -0.152 C 
ENDBRANCH   7   8
ENDBRANCH   5   7
BRANCH   6  14
ATOM     14  C0O MOL     1      -1.487   9.401 -23.208  1.00  0.00     0.092 C 
BRANCH  14  15
ATOM     15  N0P MOL     1      -0.984  10.741 -22.766  1.00  0.00    -0.153 N 
ATOM     16  H0Q MOL     1       0.021  10.740 -22.709  1.00  0.00     0.257 HD
ATOM     17  H0R MOL     1      -1.179  11.401 -23.513  1.00  0.00     0.244 HD
ATOM     18  H0S MOL     1      -1.334  11.057 -21.873  1.00  0.00     0.246 HD
ENDBRANCH  14  15
ENDBRANCH   6  14
BRANCH   4  19
ATOM     19  C0A MOL     1      -0.715   6.008 -19.439  1.00  0.00    -0.219 C 
BRANCH  19  20
ATOM     20  C0B MOL     1      -0.391   6.756 -18.104  1.00  0.00     0.819 C 
ATOM     21  N0C MOL     1      -0.421   6.058 -17.011  1.00  0.00    -0.993 N 
ATOM     22  H13 MOL     1      -0.609   5.064 -17.121  1.00  0.00     0.395 HD
ATOM     23  H14 MOL     1      -0.304   6.502 -16.119  1.00  0.00     0.440 HD
ATOM     24  O0D MOL     1      -0.041   7.922 -18.116  1.00  0.00    -0.614 OA
ENDBRANCH  19  20
ENDBRANCH   4  19
BRANCH   1  25
ATOM     25  C01 MOL     1      -4.382   9.391 -22.660  1.00  0.00    -0.066 C 
ATOM     26  C00 MOL     1      -5.108   8.634 -23.874  1.00  0.00    -0.126 C 
ENDBRANCH   1  25
BRANCH   2  27
ATOM     27  C04 MOL     1      -5.326   7.415 -20.443  1.00  0.00    -0.266 C 
BRANCH  27  28
ATOM     28  C05 MOL     1      -5.750   8.202 -19.229  1.00  0.00     0.870 C 
ATOM     29  O06 MOL     1      -5.505   9.380 -19.056  1.00  0.00    -0.820 OA
ATOM     30  O07 MOL     1      -6.480   7.608 -18.364  1.00  0.00    -0.676 OA
ENDBRANCH  27  28
ENDBRANCH   2  27
TORSDOF 9
ENDMDL
MODEL 9
REMARK VINA RESULT:      -5.3     14.764     17.667
REMARK  9 active torsions:
REMARK  status: ('A' for Active; 'I' for Inactive)
REMARK    1  A    between atoms: C01_2  and  C02_3 
REMARK    2  A    between atoms: C03_4  and  C04_5 
REMARK    3  A    between atoms: C04_5  and  C05_6 
REMARK    4  A    between atoms: C09_10  and  C0A_11 
REMARK    5  A    between atoms: C0A_11  and  C0B_12 
REMARK       I    between atoms: C0B_12  and  N0C_13 
REMARK    6  A    between atoms: C0E_15  and  C0F_16 
REMARK    7  A    between atoms: C0F_16  and  C0G_17 
REMARK    8  A    between atoms: C0N_23  and  C0O_24 
REMARK    9  A    between atoms: C0O_24  and  N0P_25 
ROOT
ATOM      1  C02 MOL     1      -0.763   8.256 -20.954  1.00  0.00    -0.044 C 
ATOM      2  C03 MOL     1      -0.651   6.921 -20.542  1.00  0.00     0.129 C 
ATOM      3  C08 MOL     1      -1.803   6.119 -20.167  1.00  0.00    -0.316 C 
ATOM      4  C09 MOL     1      -3.062   6.656 -20.358  1.00  0.00     0.109 C 
ATOM      5  C0E MOL     1      -3.242   7.969 -20.688  1.00  0.00    -0.064 C 
ATOM      6  C0N MOL     1      -2.119   8.733 -21.084  1.00  0.00    -0.120 C 
ENDROOT
BRANCH   5   7
ATOM      7  C0F MOL     1      -4.656   8.521 -20.767  1.00  0.00     0.047 C 
BRANCH   7   8
ATOM      8  C0G MOL     1      -5.486   8.272 -21.997  1.00  0.00     0.171 C 
ATOM      9  C0M MOL     1      -6.645   7.469 -21.953  1.00  0.00    -0.195 C 
ATOM     10  C0K MOL     1      -7.410   7.227 -23.124  1.00  0.00    -0.062 C 
ATOM     11  C0J MOL     1      -6.961   7.615 -24.389  1.00  0.00    -0.135 C 
ATOM     12  C0I MOL     1      -5.766   8.396 -24.404  1.00  0.00    -0.071 C 
ATOM     13  C0H MOL     1      -5.124   8.721 -23.228  1.00  0.00    -0.152 C 
ENDBRANCH   7   8
ENDBRANCH   5   7
BRANCH   6  14
ATOM     14  C0O MOL     1      -2.277  10.218 -21.548  1.00  0.00     0.092 C 
BRANCH  14  15
ATOM     15  N0P MOL     1      -2.189  10.474 -23.022  1.00  0.00    -0.153 N 
ATOM     16  H0Q MOL     1      -2.445   9.649 -23.540  1.00  0.00     0.257 HD
ATOM     17  H0R MOL     1      -2.917  11.140 -23.260  1.00  0.00     0.244 HD
ATOM     18  H0S MOL     1      -1.279  10.764 -23.352  1.00  0.00     0.246 HD
ENDBRANCH  14  15
ENDBRANCH   6  14
BRANCH   4  19
ATOM     19  C0A MOL     1      -4.243   5.666 -20.231  1.00  0.00    -0.219 C 
BRANCH  19  20
ATOM     20  C0B MOL     1      -4.587   5.228 -18.770  1.00  0.00     0.819 C 
ATOM     21  N0C MOL     1      -5.450   5.951 -18.123  1.00  0.00    -0.993 N 
ATOM     22  H13 MOL     1      -5.867   6.719 -18.643  1.00  0.00     0.395 HD
ATOM     23  H14 MOL     1      -5.646   5.767 -17.157  1.00  0.00     0.440 HD
ATOM     24  O0D MOL     1      -4.126   4.202 -18.304  1.00  0.00    -0.614 OA
ENDBRANCH  19  20
ENDBRANCH   4  19
BRANCH   1  25
ATOM     25  C01 MOL     1       0.453   9.139 -21.308  1.00  0.00    -0.066 C 
ATOM     26  C00 MOL     1       0.988   9.965 -20.041  1.00  0.00    -0.126 C 
ENDBRANCH   1  25
BRANCH   2  27
ATOM     27  C04 MOL     1       0.653   6.188 -20.327  1.00  0.00    -0.266 C 
BRANCH  27  28
ATOM     28  C05 MOL     1       1.139   6.144 -18.900  1.00  0.00     0.870 C 
ATOM     29  O06 MOL     1       1.799   7.018 -18.374  1.00  0.00    -0.820 OA
ATOM     30  O07 MOL     1       0.766   5.158 -18.177  1.00  0.00    -0.676 OA
ENDBRANCH  27  28
ENDBRANCH   2  27
TORSDOF 9
ENDMDL
MODEL 10
REMARK VINA RESULT:      -5.3     13.667     16.057
REMARK  9 active torsions:
REMARK  status: ('A' for Active; 'I' for Inactive)
REMARK    1  A    between atoms: C01_2  and  C02_3 
REMARK    2  A    between atoms: C03_4  and  C04_5 
REMARK    3  A    between atoms: C04_5  and  C05_6 
REMARK    4  A    between atoms: C09_10  and  C0A_11 
REMARK    5  A    between atoms: C0A_11  and  C0B_12 
REMARK       I    between atoms: C0B_12  and  N0C_13 
REMARK    6  A    between atoms: C0E_15  and  C0F_16 
REMARK    7  A    between atoms: C0F_16  and  C0G_17 
REMARK    8  A    between atoms: C0N_23  and  C0O_24 
REMARK    9  A    between atoms: C0O_24  and  N0P_25 
ROOT
ATOM      1  C02 MOL     1      -3.807   6.583 -19.943  1.00  0.00    -0.044 C 
ATOM      2  C03 MOL     1      -4.432   7.726 -20.460  1.00  0.00     0.129 C 
ATOM      3  C08 MOL     1      -3.699   8.938 -20.784  1.00  0.00    -0.316 C 
ATOM      4  C09 MOL     1      -2.320   8.906 -20.708  1.00  0.00     0.109 C 
ATOM      5  C0E MOL     1      -1.654   7.854 -20.149  1.00  0.00    -0.064 C 
ATOM      6  C0N MOL     1      -2.369   6.665 -19.867  1.00  0.00    -0.120 C 
ENDROOT
BRANCH   5   7
ATOM      7  C0F MOL     1      -0.144   7.938 -19.992  1.00  0.00     0.047 C 
BRANCH   7   8
ATOM      8  C0G MOL     1       0.445   8.415 -18.692  1.00  0.00     0.171 C 
ATOM      9  C0M MOL     1       0.917   7.508 -17.721  1.00  0.00    -0.195 C 
ATOM     10  C0K MOL     1       1.454   7.969 -16.491  1.00  0.00    -0.062 C 
ATOM     11  C0J MOL     1       1.377   9.313 -16.113  1.00  0.00    -0.135 C 
ATOM     12  C0I MOL     1       0.861  10.202 -17.104  1.00  0.00    -0.071 C 
ATOM     13  C0H MOL     1       0.472   9.727 -18.339  1.00  0.00    -0.152 C 
ENDBRANCH   7   8
ENDBRANCH   5   7
BRANCH   6  14
ATOM     14  C0O MOL     1      -1.642   5.402 -19.300  1.00  0.00     0.092 C 
BRANCH  14  15
ATOM     15  N0P MOL     1      -1.475   5.334 -17.813  1.00  0.00    -0.153 N 
ATOM     16  H0Q MOL     1      -2.286   5.709 -17.349  1.00  0.00     0.257 HD
ATOM     17  H0R MOL     1      -1.484   4.353 -17.550  1.00  0.00     0.244 HD
ATOM     18  H0S MOL     1      -0.669   5.823 -17.449  1.00  0.00     0.246 HD
ENDBRANCH  14  15
ENDBRANCH   6  14
BRANCH   4  19
ATOM     19  C0A MOL     1      -1.583  10.106 -21.345  1.00  0.00    -0.219 C 
BRANCH  19  20
ATOM     20  C0B MOL     1      -2.230  10.663 -22.655  1.00  0.00     0.819 C 
ATOM     21  N0C MOL     1      -2.112   9.941 -23.727  1.00  0.00    -0.993 N 
ATOM     22  H13 MOL     1      -1.645   9.045 -23.613  1.00  0.00     0.395 HD
ATOM     23  H14 MOL     1      -2.434  10.287 -24.613  1.00  0.00     0.440 HD
ATOM     24  O0D MOL     1      -2.888  11.687 -22.636  1.00  0.00    -0.614 OA
ENDBRANCH  19  20
ENDBRANCH   4  19
BRANCH   1  25
ATOM     25  C01 MOL     1      -4.576   5.304 -19.544  1.00  0.00    -0.066 C 
ATOM     26  C00 MOL     1      -5.077   5.351 -18.021  1.00  0.00    -0.126 C 
ENDBRANCH   1  25
BRANCH   2  27
ATOM     27  C04 MOL     1      -5.924   7.893 -20.636  1.00  0.00    -0.266 C 
BRANCH  27  28
ATOM     28  C05 MOL     1      -6.434   7.680 -22.039  1.00  0.00     0.870 C 
ATOM     29  O06 MOL     1      -5.757   7.806 -23.041  1.00  0.00    -0.820 OA
ATOM     30  O07 MOL     1      -7.635   7.265 -22.176  1.00  0.00    -0.676 OA
ENDBRANCH  27  28
ENDBRANCH   2  27
TORSDOF 9
ENDMDL
MODEL 11
REMARK VINA RESULT:      -5.2      2.457      6.069
REMARK  9 active torsions:
REMARK  status: ('A' for Active; 'I' for Inactive)
REMARK    1  A    between atoms: C01_2  and  C02_3 
REMARK    2  A    between atoms: C03_4  and  C04_5 
REMARK    3  A    between atoms: C04_5  and  C05_6 
REMARK    4  A    between atoms: C09_10  and  C0A_11 
REMARK    5  A    between atoms: C0A_11  and  C0B_12 
REMARK       I    between atoms: C0B_12  and  N0C_13 
REMARK    6  A    between atoms: C0E_15  and  C0F_16 
REMARK    7  A    between atoms: C0F_16  and  C0G_17 
REMARK    8  A    between atoms: C0N_23  and  C0O_24 
REMARK    9  A    between atoms: C0O_24  and  N0P_25 
ROOT
ATOM      1  C02 MOL     1       0.695  11.029  -2.387  1.00  0.00    -0.044 C 
ATOM      2  C03 MOL     1       2.035  11.187  -2.766  1.00  0.00     0.129 C 
ATOM      3  C08 MOL     1       2.631  10.444  -3.862  1.00  0.00    -0.316 C 
ATOM      4  C09 MOL     1       1.803   9.658  -4.642  1.00  0.00     0.109 C 
ATOM      5  C0E MOL     1       0.509   9.405  -4.290  1.00  0.00    -0.064 C 
ATOM      6  C0N MOL     1      -0.073  10.157  -3.242  1.00  0.00    -0.120 C 
ENDROOT
BRANCH   5   7
ATOM      7  C0F MOL     1      -0.307   8.437  -5.132  1.00  0.00     0.047 C 
BRANCH   7   8
ATOM      8  C0G MOL     1      -0.377   6.986  -4.742  1.00  0.00     0.171 C 
ATOM      9  C0M MOL     1      -1.170   6.552  -3.660  1.00  0.00    -0.195 C 
ATOM     10  C0K MOL     1      -1.215   5.183  -3.291  1.00  0.00    -0.062 C 
ATOM     11  C0J MOL     1      -0.350   4.240  -3.855  1.00  0.00    -0.135 C 
ATOM     12  C0I MOL     1       0.466   4.718  -4.925  1.00  0.00    -0.071 C 
ATOM     13  C0H MOL     1       0.382   6.029  -5.341  1.00  0.00    -0.152 C 
ENDBRANCH   7   8
ENDBRANCH   5   7
BRANCH   6  14
ATOM     14  C0O MOL     1      -1.574   9.966  -2.850  1.00  0.00     0.092 C 
BRANCH  14  15
ATOM     15  N0P MOL     1      -2.578  10.765  -3.623  1.00  0.00    -0.153 N 
ATOM     16  H0Q MOL     1      -3.510  10.580  -3.290  1.00  0.00     0.257 HD
ATOM     17  H0R MOL     1      -2.433  11.743  -3.391  1.00  0.00     0.244 HD
ATOM     18  H0S MOL     1      -2.579  10.602  -4.620  1.00  0.00     0.246 HD
ENDBRANCH  14  15
ENDBRANCH   6  14
BRANCH   4  19
ATOM     19  C0A MOL     1       2.419   9.135  -5.960  1.00  0.00    -0.219 C 
BRANCH  19  20
ATOM     20  C0B MOL     1       3.796   8.410  -5.808  1.00  0.00     0.819 C 
ATOM     21  N0C MOL     1       3.813   7.308  -5.123  1.00  0.00    -0.993 N 
ATOM     22  H13 MOL     1       2.912   6.981  -4.782  1.00  0.00     0.395 HD
ATOM     23  H14 MOL     1       4.680   6.845  -4.922  1.00  0.00     0.440 HD
ATOM     24  O0D MOL     1       4.785   8.827  -6.385  1.00  0.00    -0.614 OA
ENDBRANCH  19  20
ENDBRANCH   4  19
BRANCH   1  25
ATOM     25  C01 MOL     1       0.058  11.773  -1.192  1.00  0.00    -0.066 C 
ATOM     26  C00 MOL     1       0.341  11.029   0.201  1.00  0.00    -0.126 C 
ENDBRANCH   1  25
BRANCH   2  27
ATOM     27  C04 MOL     1       3.047  12.041  -2.035  1.00  0.00    -0.266 C 
BRANCH  27  28
ATOM     28  C05 MOL     1       4.120  11.279  -1.298  1.00  0.00     0.870 C 
ATOM     29  O06 MOL     1       5.312  11.426  -1.482  1.00  0.00    -0.820 OA
ATOM     30  O07 MOL     1       3.750  10.487  -0.367  1.00  0.00    -0.676 OA
ENDBRANCH  27  28
ENDBRANCH   2  27
TORSDOF 9
ENDMDL
MODEL 12
REMARK VINA RESULT:      -5.2      3.454      6.614
REMARK  9 active torsions:
REMARK  status: ('A' for Active; 'I' for Inactive)
REMARK    1  A    between atoms: C01_2  and  C02_3 
REMARK    2  A    between atoms: C03_4  and  C04_5 
REMARK    3  A    between atoms: C04_5  and  C05_6 
REMARK    4  A    between atoms: C09_10  and  C0A_11 
REMARK    5  A    between atoms: C0A_11  and  C0B_12 
REMARK       I    between atoms: C0B_12  and  N0C_13 
REMARK    6  A    between atoms: C0E_15  and  C0F_16 
REMARK    7  A    between atoms: C0F_16  and  C0G_17 
REMARK    8  A    between atoms: C0N_23  and  C0O_24 
REMARK    9  A    between atoms: C0O_24  and  N0P_25 
ROOT
ATOM      1  C02 MOL     1       3.420   9.721  -2.705  1.00  0.00    -0.044 C 
ATOM      2  C03 MOL     1       2.636  10.865  -2.503  1.00  0.00     0.129 C 
ATOM      3  C08 MOL     1       1.404  11.108  -3.234  1.00  0.00    -0.316 C 
ATOM      4  C09 MOL     1       0.924  10.104  -4.054  1.00  0.00     0.109 C 
ATOM      5  C0E MOL     1       1.668   8.999  -4.349  1.00  0.00    -0.064 C 
ATOM      6  C0N MOL     1       2.850   8.753  -3.610  1.00  0.00    -0.120 C 
ENDROOT
BRANCH   5   7
ATOM      7  C0F MOL     1       1.125   7.992  -5.351  1.00  0.00     0.047 C 
BRANCH   7   8
ATOM      8  C0G MOL     1       0.443   6.744  -4.860  1.00  0.00     0.171 C 
ATOM      9  C0M MOL     1      -0.451   6.775  -3.769  1.00  0.00    -0.195 C 
ATOM     10  C0K MOL     1      -1.074   5.588  -3.304  1.00  0.00    -0.062 C 
ATOM     11  C0J MOL     1      -0.701   4.327  -3.777  1.00  0.00    -0.135 C 
ATOM     12  C0I MOL     1       0.232   4.327  -4.857  1.00  0.00    -0.071 C 
ATOM     13  C0H MOL     1       0.714   5.513  -5.369  1.00  0.00    -0.152 C 
ENDBRANCH   7   8
ENDBRANCH   5   7
BRANCH   6  14
ATOM     14  C0O MOL     1       3.698   7.462  -3.852  1.00  0.00     0.092 C 
BRANCH  14  15
ATOM     15  N0P MOL     1       3.410   6.293  -2.960  1.00  0.00    -0.153 N 
ATOM     16  H0Q MOL     1       2.989   6.601  -2.098  1.00  0.00     0.257 HD
ATOM     17  H0R MOL     1       2.677   5.747  -3.400  1.00  0.00     0.244 HD
ATOM     18  H0S MOL     1       4.214   5.732  -2.716  1.00  0.00     0.246 HD
ENDBRANCH  14  15
ENDBRANCH   6  14
BRANCH   4  19
ATOM     19  C0A MOL     1      -0.524  10.288  -4.565  1.00  0.00    -0.219 C 
BRANCH  19  20
ATOM     20  C0B MOL     1      -1.582  10.612  -3.460  1.00  0.00     0.819 C 
ATOM     21  N0C MOL     1      -1.978  11.843  -3.362  1.00  0.00    -0.993 N 
ATOM     22  H13 MOL     1      -1.599  12.490  -4.050  1.00  0.00     0.395 HD
ATOM     23  H14 MOL     1      -2.591  12.124  -2.619  1.00  0.00     0.440 HD
ATOM     24  O0D MOL     1      -2.068   9.721  -2.786  1.00  0.00    -0.614 OA
ENDBRANCH  19  20
ENDBRANCH   4  19
BRANCH   1  25
ATOM     25  C01 MOL     1       4.758   9.471  -1.976  1.00  0.00    -0.066 C 
ATOM     26  C00 MOL     1       4.539   8.898  -0.494  1.00  0.00    -0.126 C 
ENDBRANCH   1  25
BRANCH   2  27
ATOM     27  C04 MOL     1       3.011  12.025  -1.610  1.00  0.00    -0.266 C 
BRANCH  27  28
ATOM     28  C05 MOL     1       2.063  12.292  -0.467  1.00  0.00     0.870 C 
ATOM     29  O06 MOL     1       1.661  11.440   0.302  1.00  0.00    -0.820 OA
ATOM     30  O07 MOL     1       1.726  13.504  -0.249  1.00  0.00    -0.676 OA
ENDBRANCH  27  28
ENDBRANCH   2  27
TORSDOF 9
ENDMDL
MODEL 13
REMARK VINA RESULT:      -5.1     19.876     22.528
REMARK  9 active torsions:
REMARK  status: ('A' for Active; 'I' for Inactive)
REMARK    1  A    between atoms: C01_2  and  C02_3 
REMARK    2  A    between atoms: C03_4  and  C04_5 
REMARK    3  A    between atoms: C04_5  and  C05_6 
REMARK    4  A    between atoms: C09_10  and  C0A_11 
REMARK    5  A    between atoms: C0A_11  and  C0B_12 
REMARK       I    between atoms: C0B_12  and  N0C_13 
REMARK    6  A    between atoms: C0E_15  and  C0F_16 
REMARK    7  A    between atoms: C0F_16  and  C0G_17 
REMARK    8  A    between atoms: C0N_23  and  C0O_24 
REMARK    9  A    between atoms: C0O_24  and  N0P_25 
ROOT
ATOM      1  C02 MOL     1      -9.266   3.827  13.208  1.00  0.00    -0.044 C 
ATOM      2  C03 MOL     1      -7.977   3.460  12.798  1.00  0.00     0.129 C 
ATOM      3  C08 MOL     1      -7.640   2.105  12.398  1.00  0.00    -0.316 C 
ATOM      4  C09 MOL     1      -8.664   1.184  12.288  1.00  0.00     0.109 C 
ATOM      5  C0E MOL     1      -9.925   1.453  12.736  1.00  0.00    -0.064 C 
ATOM      6  C0N MOL     1     -10.254   2.782  13.093  1.00  0.00    -0.120 C 
ENDROOT
BRANCH   5   7
ATOM      7  C0F MOL     1     -10.972   0.351  12.692  1.00  0.00     0.047 C 
BRANCH   7   8
ATOM      8  C0G MOL     1     -11.258  -0.456  13.929  1.00  0.00     0.171 C 
ATOM      9  C0M MOL     1     -12.500  -0.373  14.591  1.00  0.00    -0.195 C 
ATOM     10  C0K MOL     1     -12.751  -1.127  15.768  1.00  0.00    -0.062 C 
ATOM     11  C0J MOL     1     -11.737  -1.836  16.417  1.00  0.00    -0.135 C 
ATOM     12  C0I MOL     1     -10.481  -1.873  15.740  1.00  0.00    -0.071 C 
ATOM     13  C0H MOL     1     -10.318  -1.234  14.529  1.00  0.00    -0.152 C 
ENDBRANCH   7   8
ENDBRANCH   5   7
BRANCH   6  14
ATOM     14  C0O MOL     1     -11.704   3.162  13.537  1.00  0.00     0.092 C 
BRANCH  14  15
ATOM     15  N0P MOL     1     -12.650   3.581  12.453  1.00  0.00    -0.153 N 
ATOM     16  H0Q MOL     1     -13.414   4.113  12.837  1.00  0.00     0.257 HD
ATOM     17  H0R MOL     1     -12.164   4.252  11.867  1.00  0.00     0.244 HD
ATOM     18  H0S MOL     1     -13.052   2.823  11.919  1.00  0.00     0.246 HD
ENDBRANCH  14  15
ENDBRANCH   6  14
BRANCH   4  19
ATOM     19  C0A MOL     1      -8.304  -0.141  11.577  1.00  0.00    -0.219 C 
BRANCH  19  20
ATOM     20  C0B MOL     1      -7.343   0.003  10.352  1.00  0.00     0.819 C 
ATOM     21  N0C MOL     1      -7.676   0.860   9.436  1.00  0.00    -0.993 N 
ATOM     22  H13 MOL     1      -8.516   1.405   9.618  1.00  0.00     0.395 HD
ATOM     23  H14 MOL     1      -7.142   0.935   8.590  1.00  0.00     0.440 HD
ATOM     24  O0D MOL     1      -6.289  -0.605  10.315  1.00  0.00    -0.614 OA
ENDBRANCH  19  20
ENDBRANCH   4  19
BRANCH   1  25
ATOM     25  C01 MOL     1      -9.631   5.250  13.685  1.00  0.00    -0.066 C 
ATOM     26  C00 MOL     1      -9.326   5.460  15.246  1.00  0.00    -0.126 C 
ENDBRANCH   1  25
BRANCH   2  27
ATOM     27  C04 MOL     1      -6.769   4.369  12.825  1.00  0.00    -0.266 C 
BRANCH  27  28
ATOM     28  C05 MOL     1      -5.537   3.784  13.470  1.00  0.00     0.870 C 
ATOM     29  O06 MOL     1      -4.513   3.514  12.872  1.00  0.00    -0.820 OA
ATOM     30  O07 MOL     1      -5.547   3.636  14.739  1.00  0.00    -0.676 OA
ENDBRANCH  27  28
ENDBRANCH   2  27
TORSDOF 9
ENDMDL
MODEL 14
REMARK VINA RESULT:      -5.1      2.898      7.118
REMARK  9 active torsions:
REMARK  status: ('A' for Active; 'I' for Inactive)
REMARK    1  A    between atoms: C01_2  and  C02_3 
REMARK    2  A    between atoms: C03_4  and  C04_5 
REMARK    3  A    between atoms: C04_5  and  C05_6 
REMARK    4  A    between atoms: C09_10  and  C0A_11 
REMARK    5  A    between atoms: C0A_11  and  C0B_12 
REMARK       I    between atoms: C0B_12  and  N0C_13 
REMARK    6  A    between atoms: C0E_15  and  C0F_16 
REMARK    7  A    between atoms: C0F_16  and  C0G_17 
REMARK    8  A    between atoms: C0N_23  and  C0O_24 
REMARK    9  A    between atoms: C0O_24  and  N0P_25 
ROOT
ATOM      1  C02 MOL     1       2.080   9.493  -4.639  1.00  0.00    -0.044 C 
ATOM      2  C03 MOL     1       0.687   9.627  -4.725  1.00  0.00     0.129 C 
ATOM      3  C08 MOL     1      -0.204   8.484  -4.818  1.00  0.00    -0.316 C 
ATOM      4  C09 MOL     1       0.339   7.221  -4.678  1.00  0.00     0.109 C 
ATOM      5  C0E MOL     1       1.688   7.015  -4.662  1.00  0.00    -0.064 C 
ATOM      6  C0N MOL     1       2.548   8.132  -4.537  1.00  0.00    -0.120 C 
ENDROOT
BRANCH   5   7
ATOM      7  C0F MOL     1       2.215   5.589  -4.623  1.00  0.00     0.047 C 
BRANCH   7   8
ATOM      8  C0G MOL     1       2.414   4.833  -5.908  1.00  0.00     0.171 C 
ATOM      9  C0M MOL     1       1.320   4.338  -6.648  1.00  0.00    -0.195 C 
ATOM     10  C0K MOL     1       1.521   3.611  -7.850  1.00  0.00    -0.062 C 
ATOM     11  C0J MOL     1       2.794   3.200  -8.257  1.00  0.00    -0.135 C 
ATOM     12  C0I MOL     1       3.879   3.687  -7.467  1.00  0.00    -0.071 C 
ATOM     13  C0H MOL     1       3.645   4.503  -6.380  1.00  0.00    -0.152 C 
ENDBRANCH   7   8
ENDBRANCH   5   7
BRANCH   6  14
ATOM     14  C0O MOL     1       4.097   7.950  -4.434  1.00  0.00     0.092 C 
BRANCH  14  15
ATOM     15  N0P MOL     1       4.841   7.784  -5.723  1.00  0.00    -0.153 N 
ATOM     16  H0Q MOL     1       4.543   6.949  -6.199  1.00  0.00     0.257 HD
ATOM     17  H0R MOL     1       4.544   8.530  -6.345  1.00  0.00     0.244 HD
ATOM     18  H0S MOL     1       5.847   7.735  -5.635  1.00  0.00     0.246 HD
ENDBRANCH  14  15
ENDBRANCH   6  14
BRANCH   4  19
ATOM     19  C0A MOL     1      -0.676   6.070  -4.484  1.00  0.00    -0.219 C 
BRANCH  19  20
ATOM     20  C0B MOL     1      -1.670   6.256  -3.291  1.00  0.00     0.819 C 
ATOM     21  N0C MOL     1      -2.860   5.758  -3.429  1.00  0.00    -0.993 N 
ATOM     22  H13 MOL     1      -3.032   5.243  -4.289  1.00  0.00     0.395 HD
ATOM     23  H14 MOL     1      -3.564   5.919  -2.732  1.00  0.00     0.440 HD
ATOM     24  O0D MOL     1      -1.302   6.771  -2.251  1.00  0.00    -0.614 OA
ENDBRANCH  19  20
ENDBRANCH   4  19
BRANCH   1  25
ATOM     25  C01 MOL     1       3.046  10.697  -4.590  1.00  0.00    -0.066 C 
ATOM     26  C00 MOL     1       3.132  11.342  -3.124  1.00  0.00    -0.126 C 
ENDBRANCH   1  25
BRANCH   2  27
ATOM     27  C04 MOL     1      -0.051  10.941  -4.845  1.00  0.00    -0.266 C 
BRANCH  27  28
ATOM     28  C05 MOL     1      -1.099  11.191  -3.790  1.00  0.00     0.870 C 
ATOM     29  O06 MOL     1      -2.273  10.897  -3.908  1.00  0.00    -0.820 OA
ATOM     30  O07 MOL     1      -0.711  11.671  -2.671  1.00  0.00    -0.676 OA
ENDBRANCH  27  28
ENDBRANCH   2  27
TORSDOF 9
ENDMDL
MODEL 15
REMARK VINA RESULT:      -5.1     26.858     28.780
REMARK  9 active torsions:
REMARK  status: ('A' for Active; 'I' for Inactive)
REMARK    1  A    between atoms: C01_2  and  C02_3 
REMARK    2  A    between atoms: C03_4  and  C04_5 
REMARK    3  A    between atoms: C04_5  and  C05_6 
REMARK    4  A    between atoms: C09_10  and  C0A_11 
REMARK    5  A    between atoms: C0A_11  and  C0B_12 
REMARK       I    between atoms: C0B_12  and  N0C_13 
REMARK    6  A    between atoms: C0E_15  and  C0F_16 
REMARK    7  A    between atoms: C0F_16  and  C0G_17 
REMARK    8  A    between atoms: C0N_23  and  C0O_24 
REMARK    9  A    between atoms: C0O_24  and  N0P_25 
ROOT
ATOM      1  C02 MOL     1     -27.431   4.499  -8.669  1.00  0.00    -0.044 C 
ATOM      2  C03 MOL     1     -27.849   5.619  -9.401  1.00  0.00     0.129 C 
ATOM      3  C08 MOL     1     -27.007   6.262 -10.395  1.00  0.00    -0.316 C 
ATOM      4  C09 MOL     1     -25.808   5.658 -10.723  1.00  0.00     0.109 C 
ATOM      5  C0E MOL     1     -25.309   4.611 -10.004  1.00  0.00    -0.064 C 
ATOM      6  C0N MOL     1     -26.147   3.969  -9.061  1.00  0.00    -0.120 C 
ENDROOT
BRANCH   5   7
ATOM      7  C0F MOL     1     -23.929   4.072 -10.348  1.00  0.00     0.047 C 
BRANCH   7   8
ATOM      8  C0G MOL     1     -23.802   2.810 -11.157  1.00  0.00     0.171 C 
ATOM      9  C0M MOL     1     -24.785   2.436 -12.096  1.00  0.00    -0.195 C 
ATOM     10  C0K MOL     1     -24.662   1.234 -12.841  1.00  0.00    -0.062 C 
ATOM     11  C0J MOL     1     -23.672   0.289 -12.555  1.00  0.00    -0.135 C 
ATOM     12  C0I MOL     1     -22.712   0.682 -11.574  1.00  0.00    -0.071 C 
ATOM     13  C0H MOL     1     -22.793   1.918 -10.968  1.00  0.00    -0.152 C 
ENDBRANCH   7   8
ENDBRANCH   5   7
BRANCH   6  14
ATOM     14  C0O MOL     1     -25.656   2.715  -8.267  1.00  0.00     0.092 C 
BRANCH  14  15
ATOM     15  N0P MOL     1     -24.861   2.976  -7.025  1.00  0.00    -0.153 N 
ATOM     16  H0Q MOL     1     -25.211   2.424  -6.259  1.00  0.00     0.257 HD
ATOM     17  H0R MOL     1     -23.927   2.606  -7.176  1.00  0.00     0.244 HD
ATOM     18  H0S MOL     1     -24.848   3.938  -6.718  1.00  0.00     0.246 HD
ENDBRANCH  14  15
ENDBRANCH   6  14
BRANCH   4  19
ATOM     19  C0A MOL     1     -25.101   6.207 -11.983  1.00  0.00    -0.219 C 
BRANCH  19  20
ATOM     20  C0B MOL     1     -25.956   6.173 -13.292  1.00  0.00     0.819 C 
ATOM     21  N0C MOL     1     -26.105   7.292 -13.932  1.00  0.00    -0.993 N 
ATOM     22  H13 MOL     1     -25.609   8.094 -13.550  1.00  0.00     0.395 HD
ATOM     23  H14 MOL     1     -26.711   7.347 -14.729  1.00  0.00     0.440 HD
ATOM     24  O0D MOL     1     -26.383   5.119 -13.726  1.00  0.00    -0.614 OA
ENDBRANCH  19  20
ENDBRANCH   4  19
BRANCH   1  25
ATOM     25  C01 MOL     1     -28.291   3.833  -7.573  1.00  0.00    -0.066 C 
ATOM     26  C00 MOL     1     -29.348   2.793  -8.185  1.00  0.00    -0.126 C 
ENDBRANCH   1  25
BRANCH   2  27
ATOM     27  C04 MOL     1     -29.148   6.360  -9.182  1.00  0.00    -0.266 C 
BRANCH  27  28
ATOM     28  C05 MOL     1     -29.013   7.846  -8.964  1.00  0.00     0.870 C 
ATOM     29  O06 MOL     1     -28.362   8.351  -8.070  1.00  0.00    -0.820 OA
ATOM     30  O07 MOL     1     -29.555   8.622  -9.822  1.00  0.00    -0.676 OA
ENDBRANCH  27  28
ENDBRANCH   2  27
TORSDOF 9
ENDMDL
MODEL 16
REMARK VINA RESULT:      -5.0     21.003     23.516
REMARK  9 active torsions:
REMARK  status: ('A' for Active; 'I' for Inactive)
REMARK    1  A    between atoms: C01_2  and  C02_3 
REMARK    2  A    between atoms: C03_4  and  C04_5 
REMARK    3  A    between atoms: C04_5  and  C05_6 
REMARK    4  A    between atoms: C09_10  and  C0A_11 
REMARK    5  A    between atoms: C0A_11  and  C0B_12 
REMARK       I    between atoms: C0B_12  and  N0C_13 
REMARK    6  A    between atoms: C0E_15  and  C0F_16 
REMARK    7  A    between atoms: C0F_16  and  C0G_17 
REMARK    8  A    between atoms: C0N_23  and  C0O_24 
REMARK    9  A    between atoms: C0O_24  and  N0P_25 
ROOT
ATOM      1  C02 MOL     1      -9.699   2.097  12.222  1.00  0.00    -0.044 C 
ATOM      2  C03 MOL     1      -9.333   0.772  11.952  1.00  0.00     0.129 C 
ATOM      3  C08 MOL     1      -9.417  -0.281  12.949  1.00  0.00    -0.316 C 
ATOM      4  C09 MOL     1     -10.011   0.015  14.161  1.00  0.00     0.109 C 
ATOM      5  C0E MOL     1     -10.326   1.295  14.515  1.00  0.00    -0.064 C 
ATOM      6  C0N MOL     1     -10.272   2.309  13.529  1.00  0.00    -0.120 C 
ENDROOT
BRANCH   5   7
ATOM      7  C0F MOL     1     -10.868   1.562  15.910  1.00  0.00     0.047 C 
BRANCH   7   8
ATOM      8  C0G MOL     1      -9.914   1.791  17.050  1.00  0.00     0.171 C 
ATOM      9  C0M MOL     1     -10.178   1.292  18.343  1.00  0.00    -0.195 C 
ATOM     10  C0K MOL     1      -9.278   1.530  19.414  1.00  0.00    -0.062 C 
ATOM     11  C0J MOL     1      -8.197   2.407  19.286  1.00  0.00    -0.135 C 
ATOM     12  C0I MOL     1      -7.977   2.924  17.974  1.00  0.00    -0.071 C 
ATOM     13  C0H MOL     1      -8.800   2.562  16.929  1.00  0.00    -0.152 C 
ENDBRANCH   7   8
ENDBRANCH   5   7
BRANCH   6  14
ATOM     14  C0O MOL     1     -10.698   3.777  13.857  1.00  0.00     0.092 C 
BRANCH  14  15
ATOM     15  N0P MOL     1     -12.141   4.120  13.650  1.00  0.00    -0.153 N 
ATOM     16  H0Q MOL     1     -12.734   3.415  14.054  1.00  0.00     0.257 HD
ATOM     17  H0R MOL     1     -12.341   4.946  14.206  1.00  0.00     0.244 HD
ATOM     18  H0S MOL     1     -12.421   4.229  12.685  1.00  0.00     0.246 HD
ENDBRANCH  14  15
ENDBRANCH   6  14
BRANCH   4  19
ATOM     19  C0A MOL     1     -10.347  -1.197  15.060  1.00  0.00    -0.219 C 
BRANCH  19  20
ATOM     20  C0B MOL     1     -11.815  -1.723  14.945  1.00  0.00     0.819 C 
ATOM     21  N0C MOL     1     -12.573  -1.596  15.991  1.00  0.00    -0.993 N 
ATOM     22  H13 MOL     1     -12.159  -1.118  16.787  1.00  0.00     0.395 HD
ATOM     23  H14 MOL     1     -13.496  -1.990  16.002  1.00  0.00     0.440 HD
ATOM     24  O0D MOL     1     -12.240  -2.150  13.887  1.00  0.00    -0.614 OA
ENDBRANCH  19  20
ENDBRANCH   4  19
BRANCH   1  25
ATOM     25  C01 MOL     1      -9.569   3.240  11.191  1.00  0.00    -0.066 C 
ATOM     26  C00 MOL     1     -10.812   3.283  10.177  1.00  0.00    -0.126 C 
ENDBRANCH   1  25
BRANCH   2  27
ATOM     27  C04 MOL     1      -8.708   0.291  10.662  1.00  0.00    -0.266 C 
BRANCH  27  28
ATOM     28  C05 MOL     1      -7.210   0.437  10.578  1.00  0.00     0.870 C 
ATOM     29  O06 MOL     1      -6.595   1.418  10.948  1.00  0.00    -0.820 OA
ATOM     30  O07 MOL     1      -6.540  -0.569  10.163  1.00  0.00    -0.676 OA
ENDBRANCH  27  28
ENDBRANCH   2  27
TORSDOF 9
ENDMDL
MODEL 17
REMARK VINA RESULT:      -4.9     19.865     22.494
REMARK  9 active torsions:
REMARK  status: ('A' for Active; 'I' for Inactive)
REMARK    1  A    between atoms: C01_2  and  C02_3 
REMARK    2  A    between atoms: C03_4  and  C04_5 
REMARK    3  A    between atoms: C04_5  and  C05_6 
REMARK    4  A    between atoms: C09_10  and  C0A_11 
REMARK    5  A    between atoms: C0A_11  and  C0B_12 
REMARK       I    between atoms: C0B_12  and  N0C_13 
REMARK    6  A    between atoms: C0E_15  and  C0F_16 
REMARK    7  A    between atoms: C0F_16  and  C0G_17 
REMARK    8  A    between atoms: C0N_23  and  C0O_24 
REMARK    9  A    between atoms: C0O_24  and  N0P_25 
ROOT
ATOM      1  C02 MOL     1      -8.207   2.662  14.683  1.00  0.00    -0.044 C 
ATOM      2  C03 MOL     1      -7.450   2.908  13.530  1.00  0.00     0.129 C 
ATOM      3  C08 MOL     1      -7.511   2.054  12.356  1.00  0.00    -0.316 C 
ATOM      4  C09 MOL     1      -8.455   1.045  12.333  1.00  0.00     0.109 C 
ATOM      5  C0E MOL     1      -9.175   0.707  13.443  1.00  0.00    -0.064 C 
ATOM      6  C0N MOL     1      -9.134   1.563  14.570  1.00  0.00    -0.120 C 
ENDROOT
BRANCH   5   7
ATOM      7  C0F MOL     1     -10.111  -0.489  13.377  1.00  0.00     0.047 C 
BRANCH   7   8
ATOM      8  C0G MOL     1     -11.572  -0.278  13.087  1.00  0.00     0.171 C 
ATOM      9  C0M MOL     1     -12.039   0.913  12.493  1.00  0.00    -0.195 C 
ATOM     10  C0K MOL     1     -13.422   1.108  12.241  1.00  0.00    -0.062 C 
ATOM     11  C0J MOL     1     -14.390   0.224  12.725  1.00  0.00    -0.135 C 
ATOM     12  C0I MOL     1     -13.887  -0.955  13.353  1.00  0.00    -0.071 C 
ATOM     13  C0H MOL     1     -12.529  -1.169  13.460  1.00  0.00    -0.152 C 
ENDBRANCH   7   8
ENDBRANCH   5   7
BRANCH   6  14
ATOM     14  C0O MOL     1     -10.000   1.266  15.838  1.00  0.00     0.092 C 
BRANCH  14  15
ATOM     15  N0P MOL     1     -11.347   1.919  15.899  1.00  0.00    -0.153 N 
ATOM     16  H0Q MOL     1     -12.002   1.434  15.308  1.00  0.00     0.257 HD
ATOM     17  H0R MOL     1     -11.715   1.771  16.834  1.00  0.00     0.244 HD
ATOM     18  H0S MOL     1     -11.364   2.892  15.628  1.00  0.00     0.246 HD
ENDBRANCH  14  15
ENDBRANCH   6  14
BRANCH   4  19
ATOM     19  C0A MOL     1      -8.683   0.368  10.962  1.00  0.00    -0.219 C 
BRANCH  19  20
ATOM     20  C0B MOL     1      -7.422   0.294  10.041  1.00  0.00     0.819 C 
ATOM     21  N0C MOL     1      -7.351   1.144   9.063  1.00  0.00    -0.993 N 
ATOM     22  H13 MOL     1      -8.107   1.824   9.008  1.00  0.00     0.395 HD
ATOM     23  H14 MOL     1      -6.608   1.089   8.392  1.00  0.00     0.440 HD
ATOM     24  O0D MOL     1      -6.512  -0.475  10.295  1.00  0.00    -0.614 OA
ENDBRANCH  19  20
ENDBRANCH   4  19
BRANCH   1  25
ATOM     25  C01 MOL     1      -8.117   3.529  15.958  1.00  0.00    -0.066 C 
ATOM     26  C00 MOL     1      -9.097   4.798  15.895  1.00  0.00    -0.126 C 
ENDBRANCH   1  25
BRANCH   2  27
ATOM     27  C04 MOL     1      -6.409   3.996  13.394  1.00  0.00    -0.266 C 
BRANCH  27  28
ATOM     28  C05 MOL     1      -6.942   5.354  13.013  1.00  0.00     0.870 C 
ATOM     29  O06 MOL     1      -7.708   5.556  12.091  1.00  0.00    -0.820 OA
ATOM     30  O07 MOL     1      -6.628   6.344  13.758  1.00  0.00    -0.676 OA
ENDBRANCH  27  28
ENDBRANCH   2  27
TORSDOF 9
ENDMDL
MODEL 18
REMARK VINA RESULT:      -4.9     18.040     20.602
REMARK  9 active torsions:
REMARK  status: ('A' for Active; 'I' for Inactive)
REMARK    1  A    between atoms: C01_2  and  C02_3 
REMARK    2  A    between atoms: C03_4  and  C04_5 
REMARK    3  A    between atoms: C04_5  and  C05_6 
REMARK    4  A    between atoms: C09_10  and  C0A_11 
REMARK    5  A    between atoms: C0A_11  and  C0B_12 
REMARK       I    between atoms: C0B_12  and  N0C_13 
REMARK    6  A    between atoms: C0E_15  and  C0F_16 
REMARK    7  A    between atoms: C0F_16  and  C0G_17 
REMARK    8  A    between atoms: C0N_23  and  C0O_24 
REMARK    9  A    between atoms: C0O_24  and  N0P_25 
ROOT
ATOM      1  C02 MOL     1      -4.232   8.985 -21.746  1.00  0.00    -0.044 C 
ATOM      2  C03 MOL     1      -5.250   8.077 -21.427  1.00  0.00     0.129 C 
ATOM      3  C08 MOL     1      -6.278   7.688 -22.377  1.00  0.00    -0.316 C 
ATOM      4  C09 MOL     1      -6.158   8.127 -23.682  1.00  0.00     0.109 C 
ATOM      5  C0E MOL     1      -5.235   9.064 -24.045  1.00  0.00    -0.064 C 
ATOM      6  C0N MOL     1      -4.218   9.413 -23.124  1.00  0.00    -0.120 C 
ENDROOT
BRANCH   5   7
ATOM      7  C0F MOL     1      -5.238   9.587 -25.473  1.00  0.00     0.047 C 
BRANCH   7   8
ATOM      8  C0G MOL     1      -5.915  10.893 -25.788  1.00  0.00     0.171 C 
ATOM      9  C0M MOL     1      -6.719  11.553 -24.836  1.00  0.00    -0.195 C 
ATOM     10  C0K MOL     1      -7.367  12.775 -25.150  1.00  0.00    -0.062 C 
ATOM     11  C0J MOL     1      -7.387  13.284 -26.452  1.00  0.00    -0.135 C 
ATOM     12  C0I MOL     1      -6.592  12.573 -27.402  1.00  0.00    -0.071 C 
ATOM     13  C0H MOL     1      -5.870  11.462 -27.021  1.00  0.00    -0.152 C 
ENDBRANCH   7   8
ENDBRANCH   5   7
BRANCH   6  14
ATOM     14  C0O MOL     1      -3.089  10.422 -23.514  1.00  0.00     0.092 C 
BRANCH  14  15
ATOM     15  N0P MOL     1      -3.384  11.875 -23.303  1.00  0.00    -0.153 N 
ATOM     16  H0Q MOL     1      -3.017  12.425 -24.063  1.00  0.00     0.257 HD
ATOM     17  H0R MOL     1      -4.389  11.997 -23.386  1.00  0.00     0.244 HD
ATOM     18  H0S MOL     1      -3.019  12.267 -22.447  1.00  0.00     0.246 HD
ENDBRANCH  14  15
ENDBRANCH   6  14
BRANCH   4  19
ATOM     19  C0A MOL     1      -7.094   7.448 -24.708  1.00  0.00    -0.219 C 
BRANCH  19  20
ATOM     20  C0B MOL     1      -8.420   8.219 -25.009  1.00  0.00     0.819 C 
ATOM     21  N0C MOL     1      -8.937   8.072 -26.191  1.00  0.00    -0.993 N 
ATOM     22  H13 MOL     1      -8.456   7.423 -26.810  1.00  0.00     0.395 HD
ATOM     23  H14 MOL     1      -9.739   8.607 -26.467  1.00  0.00     0.440 HD
ATOM     24  O0D MOL     1      -8.979   8.858 -24.136  1.00  0.00    -0.614 OA
ENDBRANCH  19  20
ENDBRANCH   4  19
BRANCH   1  25
ATOM     25  C01 MOL     1      -3.161   9.450 -20.735  1.00  0.00    -0.066 C 
ATOM     26  C00 MOL     1      -1.891   8.471 -20.708  1.00  0.00    -0.126 C 
ENDBRANCH   1  25
BRANCH   2  27
ATOM     27  C04 MOL     1      -5.483   7.484 -20.055  1.00  0.00    -0.266 C 
BRANCH  27  28
ATOM     28  C05 MOL     1      -4.749   6.196 -19.778  1.00  0.00     0.870 C 
ATOM     29  O06 MOL     1      -3.930   5.699 -20.526  1.00  0.00    -0.820 OA
ATOM     30  O07 MOL     1      -4.946   5.635 -18.647  1.00  0.00    -0.676 OA
ENDBRANCH  27  28
ENDBRANCH   2  27
TORSDOF 9
ENDMDL
MODEL 19
REMARK VINA RESULT:      -4.8     19.416     22.011
REMARK  9 active torsions:
REMARK  status: ('A' for Active; 'I' for Inactive)
REMARK    1  A    between atoms: C01_2  and  C02_3 
REMARK    2  A    between atoms: C03_4  and  C04_5 
REMARK    3  A    between atoms: C04_5  and  C05_6 
REMARK    4  A    between atoms: C09_10  and  C0A_11 
REMARK    5  A    between atoms: C0A_11  and  C0B_12 
REMARK       I    between atoms: C0B_12  and  N0C_13 
REMARK    6  A    between atoms: C0E_15  and  C0F_16 
REMARK    7  A    between atoms: C0F_16  and  C0G_17 
REMARK    8  A    between atoms: C0N_23  and  C0O_24 
REMARK    9  A    between atoms: C0O_24  and  N0P_25 
ROOT
ATOM      1  C02 MOL     1      -4.915   7.325 -27.247  1.00  0.00    -0.044 C 
ATOM      2  C03 MOL     1      -6.209   6.806 -27.391  1.00  0.00     0.129 C 
ATOM      3  C08 MOL     1      -7.251   7.018 -26.401  1.00  0.00    -0.316 C 
ATOM      4  C09 MOL     1      -6.989   7.879 -25.353  1.00  0.00     0.109 C 
ATOM      5  C0E MOL     1      -5.735   8.363 -25.115  1.00  0.00    -0.064 C 
ATOM      6  C0N MOL     1      -4.734   8.180 -26.099  1.00  0.00    -0.120 C 
ENDROOT
BRANCH   5   7
ATOM      7  C0F MOL     1      -5.496   9.211 -23.875  1.00  0.00     0.047 C 
BRANCH   7   8
ATOM      8  C0G MOL     1      -4.970   8.567 -22.621  1.00  0.00     0.171 C 
ATOM      9  C0M MOL     1      -3.677   8.849 -22.136  1.00  0.00    -0.195 C 
ATOM     10  C0K MOL     1      -3.186   8.221 -20.961  1.00  0.00    -0.062 C 
ATOM     11  C0J MOL     1      -3.877   7.177 -20.341  1.00  0.00    -0.135 C 
ATOM     12  C0I MOL     1      -5.168   6.891 -20.878  1.00  0.00    -0.071 C 
ATOM     13  C0H MOL     1      -5.664   7.616 -21.940  1.00  0.00    -0.152 C 
ENDBRANCH   7   8
ENDBRANCH   5   7
BRANCH   6  14
ATOM     14  C0O MOL     1      -3.302   8.780 -25.914  1.00  0.00     0.092 C 
BRANCH  14  15
ATOM     15  N0P MOL     1      -3.083  10.165 -26.440  1.00  0.00    -0.153 N 
ATOM     16  H0Q MOL     1      -2.127  10.450 -26.300  1.00  0.00     0.257 HD
ATOM     17  H0R MOL     1      -3.172  10.125 -27.451  1.00  0.00     0.244 HD
ATOM     18  H0S MOL     1      -3.670  10.878 -26.030  1.00  0.00     0.246 HD
ENDBRANCH  14  15
ENDBRANCH   6  14
BRANCH   4  19
ATOM     19  C0A MOL     1      -8.212   8.302 -24.508  1.00  0.00    -0.219 C 
BRANCH  19  20
ATOM     20  C0B MOL     1      -8.948   9.591 -25.003  1.00  0.00     0.819 C 
ATOM     21  N0C MOL     1      -8.492  10.156 -26.079  1.00  0.00    -0.993 N 
ATOM     22  H13 MOL     1      -7.719   9.682 -26.539  1.00  0.00     0.395 HD
ATOM     23  H14 MOL     1      -8.871  11.029 -26.395  1.00  0.00     0.440 HD
ATOM     24  O0D MOL     1      -9.955   9.984 -24.444  1.00  0.00    -0.614 OA
ENDBRANCH  19  20
ENDBRANCH   4  19
BRANCH   1  25
ATOM     25  C01 MOL     1      -3.780   7.067 -28.262  1.00  0.00    -0.066 C 
ATOM     26  C00 MOL     1      -2.916   5.770 -27.885  1.00  0.00    -0.126 C 
ENDBRANCH   1  25
BRANCH   2  27
ATOM     27  C04 MOL     1      -6.653   5.884 -28.503  1.00  0.00    -0.266 C 
BRANCH  27  28
ATOM     28  C05 MOL     1      -6.661   4.415 -28.159  1.00  0.00     0.870 C 
ATOM     29  O06 MOL     1      -7.612   3.829 -27.680  1.00  0.00    -0.820 OA
ATOM     30  O07 MOL     1      -5.627   3.730 -28.464  1.00  0.00    -0.676 OA
ENDBRANCH  27  28
ENDBRANCH   2  27
TORSDOF 9
ENDMDL
MODEL 20
REMARK VINA RESULT:      -4.8      5.092      7.878
REMARK  9 active torsions:
REMARK  status: ('A' for Active; 'I' for Inactive)
REMARK    1  A    between atoms: C01_2  and  C02_3 
REMARK    2  A    between atoms: C03_4  and  C04_5 
REMARK    3  A    between atoms: C04_5  and  C05_6 
REMARK    4  A    between atoms: C09_10  and  C0A_11 
REMARK    5  A    between atoms: C0A_11  and  C0B_12 
REMARK       I    between atoms: C0B_12  and  N0C_13 
REMARK    6  A    between atoms: C0E_15  and  C0F_16 
REMARK    7  A    between atoms: C0F_16  and  C0G_17 
REMARK    8  A    between atoms: C0N_23  and  C0O_24 
REMARK    9  A    between atoms: C0O_24  and  N0P_25 
ROOT
ATOM      1  C02 MOL     1       4.021  11.204  -0.419  1.00  0.00    -0.044 C 
ATOM      2  C03 MOL     1       3.917  10.910   0.948  1.00  0.00     0.129 C 
ATOM      3  C08 MOL     1       2.670  11.041   1.683  1.00  0.00    -0.316 C 
ATOM      4  C09 MOL     1       1.522  11.332   0.971  1.00  0.00     0.109 C 
ATOM      5  C0E MOL     1       1.562  11.697  -0.344  1.00  0.00    -0.064 C 
ATOM      6  C0N MOL     1       2.772  11.535  -1.060  1.00  0.00    -0.120 C 
ENDROOT
BRANCH   5   7
ATOM      7  C0F MOL     1       0.273  12.117  -1.031  1.00  0.00     0.047 C 
BRANCH   7   8
ATOM      8  C0G MOL     1      -0.432  11.154  -1.947  1.00  0.00     0.171 C 
ATOM      9  C0M MOL     1      -1.144  11.602  -3.079  1.00  0.00    -0.195 C 
ATOM     10  C0K MOL     1      -1.820  10.685  -3.926  1.00  0.00    -0.062 C 
ATOM     11  C0J MOL     1      -1.962   9.337  -3.586  1.00  0.00    -0.135 C 
ATOM     12  C0I MOL     1      -1.258   8.921  -2.416  1.00  0.00    -0.071 C 
ATOM     13  C0H MOL     1      -0.503   9.820  -1.693  1.00  0.00    -0.152 C 
ENDBRANCH   7   8
ENDBRANCH   5   7
BRANCH   6  14
ATOM     14  C0O MOL     1       2.855  11.862  -2.587  1.00  0.00     0.092 C 
BRANCH  14  15
ATOM     15  N0P MOL     1       2.673  10.712  -3.530  1.00  0.00    -0.153 N 
ATOM     16  H0Q MOL     1       3.559  10.280  -3.735  1.00  0.00     0.257 HD
ATOM     17  H0R MOL     1       2.165   9.987  -3.033  1.00  0.00     0.244 HD
ATOM     18  H0S MOL     1       2.244  10.946  -4.414  1.00  0.00     0.246 HD
ENDBRANCH  14  15
ENDBRANCH   6  14
BRANCH   4  19
ATOM     19  C0A MOL     1       0.192  11.163   1.742  1.00  0.00    -0.219 C 
BRANCH  19  20
ATOM     20  C0B MOL     1      -0.209  12.373   2.646  1.00  0.00     0.819 C 
ATOM     21  N0C MOL     1       0.004  12.257   3.921  1.00  0.00    -0.993 N 
ATOM     22  H13 MOL     1       0.461  11.399   4.220  1.00  0.00     0.395 HD
ATOM     23  H14 MOL     1      -0.310  12.966   4.558  1.00  0.00     0.440 HD
ATOM     24  O0D MOL     1      -0.621  13.408   2.153  1.00  0.00    -0.614 OA
ENDBRANCH  19  20
ENDBRANCH   4  19
BRANCH   1  25
ATOM     25  C01 MOL     1       5.348  11.120  -1.205  1.00  0.00    -0.066 C 
ATOM     26  C00 MOL     1       5.672   9.624  -1.684  1.00  0.00    -0.126 C 
ENDBRANCH   1  25
BRANCH   2  27
ATOM     27  C04 MOL     1       5.076  10.540   1.845  1.00  0.00    -0.266 C 
BRANCH  27  28
ATOM     28  C05 MOL     1       5.117   9.097   2.283  1.00  0.00     0.870 C 
ATOM     29  O06 MOL     1       5.049   8.149   1.525  1.00  0.00    -0.820 OA
ATOM     30  O07 MOL     1       5.314   8.860   3.523  1.00  0.00    -0.676 OA
ENDBRANCH  27  28
ENDBRANCH   2  27
TORSDOF 9
ENDMDL
