MODEL 1
REMARK VINA RESULT:      -6.5      0.000      0.000
REMARK  9 active torsions:
REMARK  status: ('A' for Active; 'I' for Inactive)
REMARK    1  A    between atoms: C01_2  and  C02_3 
REMARK    2  A    between atoms: C03_4  and  C04_5 
REMARK    3  A    between atoms: C04_5  and  C05_6 
REMARK    4  A    between atoms: C09_10  and  C0A_11 
REMARK    5  A    between atoms: C0A_11  and  C0B_12 
REMARK       I    between atoms: C0B_12  and  N0C_13 
REMARK    6  A    between atoms: C0E_15  and  C0F_16 
REMARK    7  A    between atoms: C0F_16  and  C0G_17 
REMARK    8  A    between atoms: C0N_23  and  C0O_24 
REMARK    9  A    between atoms: C0O_24  and  N0P_25 
ROOT
ATOM      1  C02 MOL     1       1.399   6.420  -5.925  1.00  0.00    -0.044 C 
ATOM      2  C03 MOL     1       0.450   5.636  -5.255  1.00  0.00     0.129 C 
ATOM      3  C08 MOL     1      -0.624   6.214  -4.466  1.00  0.00    -0.316 C 
ATOM      4  C09 MOL     1      -0.790   7.586  -4.496  1.00  0.00     0.109 C 
ATOM      5  C0E MOL     1       0.135   8.410  -5.068  1.00  0.00    -0.064 C 
ATOM      6  C0N MOL     1       1.158   7.841  -5.863  1.00  0.00    -0.120 C 
ENDROOT
BRANCH   5   7
ATOM      7  C0F MOL     1      -0.055   9.915  -4.961  1.00  0.00     0.047 C 
BRANCH   7   8
ATOM      8  C0G MOL     1       0.435  10.643  -3.739  1.00  0.00     0.171 C 
ATOM      9  C0M MOL     1       1.812  10.801  -3.479  1.00  0.00    -0.195 C 
ATOM     10  C0K MOL     1       2.262  11.474  -2.313  1.00  0.00    -0.062 C 
ATOM     11  C0J MOL     1       1.382  11.847  -1.293  1.00  0.00    -0.135 C 
ATOM     12  C0I MOL     1      -0.003  11.642  -1.571  1.00  0.00    -0.071 C 
ATOM     13  C0H MOL     1      -0.406  11.104  -2.775  1.00  0.00    -0.152 C 
ENDBRANCH   7   8
ENDBRANCH   5   7
BRANCH   6  14
ATOM     14  C0O MOL     1       2.197   8.743  -6.607  1.00  0.00     0.092 C 
BRANCH  14  15
ATOM     15  N0P MOL     1       1.787   9.273  -7.947  1.00  0.00    -0.153 N 
ATOM     16  H0Q MOL     1       2.218  10.166  -8.121  1.00  0.00     0.257 HD
ATOM     17  H0R MOL     1       2.199   8.669  -8.652  1.00  0.00     0.244 HD
ATOM     18  H0S MOL     1       0.792   9.391  -8.075  1.00  0.00     0.246 HD
ENDBRANCH  14  15
ENDBRANCH   6  14
BRANCH   4  19
ATOM     19  C0A MOL     1      -2.111   8.116  -3.893  1.00  0.00    -0.219 C 
BRANCH  19  20
ATOM     20  C0B MOL     1      -3.191   8.549  -4.938  1.00  0.00     0.819 C 
ATOM     21  N0C MOL     1      -3.404   7.746  -5.935  1.00  0.00    -0.993 N 
ATOM     22  H13 MOL     1      -2.880   6.874  -5.927  1.00  0.00     0.395 HD
ATOM     23  H14 MOL     1      -4.024   8.011  -6.679  1.00  0.00     0.440 HD
ATOM     24  O0D MOL     1      -3.856   9.554  -4.764  1.00  0.00    -0.614 OA
ENDBRANCH  19  20
ENDBRANCH   4  19
BRANCH   1  25
ATOM     25  C01 MOL     1       2.577   5.824  -6.727  1.00  0.00    -0.066 C 
ATOM     26  C00 MOL     1       3.794   5.388  -5.777  1.00  0.00    -0.126 C 
ENDBRANCH   1  25
BRANCH   2  27
ATOM     27  C04 MOL     1       0.479   4.127  -5.168  1.00  0.00    -0.266 C 
BRANCH  27  28
ATOM     28  C05 MOL     1      -0.281   3.404  -6.251  1.00  0.00     0.870 C 
ATOM     29  O06 MOL     1      -0.199   3.665  -7.436  1.00  0.00    -0.820 OA
ATOM     30  O07 MOL     1      -0.995   2.403  -5.905  1.00  0.00    -0.676 OA
ENDBRANCH  27  28
ENDBRANCH   2  27
TORSDOF 9
ENDMDL
MODEL 2
REMARK VINA RESULT:      -6.1      1.597      2.172
REMARK  9 active torsions:
REMARK  status: ('A' for Active; 'I' for Inactive)
REMARK    1  A    between atoms: C01_2  and  C02_3 
REMARK    2  A    between atoms: C03_4  and  C04_5 
REMARK    3  A    between atoms: C04_5  and  C05_6 
REMARK    4  A    between atoms: C09_10  and  C0A_11 
REMARK    5  A    between atoms: C0A_11  and  C0B_12 
REMARK       I    between atoms: C0B_12  and  N0C_13 
REMARK    6  A    between atoms: C0E_15  and  C0F_16 
REMARK    7  A    between atoms: C0F_16  and  C0G_17 
REMARK    8  A    between atoms: C0N_23  and  C0O_24 
REMARK    9  A    between atoms: C0O_24  and  N0P_25 
ROOT
ATOM      1  C02 MOL     1       2.093   7.324  -6.698  1.00  0.00    -0.044 C 
ATOM      2  C03 MOL     1       1.348   6.216  -6.270  1.00  0.00     0.129 C 
ATOM      3  C08 MOL     1       0.202   6.339  -5.387  1.00  0.00    -0.316 C 
ATOM      4  C09 MOL     1      -0.246   7.608  -5.073  1.00  0.00     0.109 C 
ATOM      5  C0E MOL     1       0.469   8.724  -5.396  1.00  0.00    -0.064 C 
ATOM      6  C0N MOL     1       1.564   8.601  -6.284  1.00  0.00    -0.120 C 
ENDROOT
BRANCH   5   7
ATOM      7  C0F MOL     1      -0.026  10.080  -4.916  1.00  0.00     0.047 C 
BRANCH   7   8
ATOM      8  C0G MOL     1       0.433  10.613  -3.586  1.00  0.00     0.171 C 
ATOM      9  C0M MOL     1      -0.480  11.142  -2.651  1.00  0.00    -0.195 C 
ATOM     10  C0K MOL     1      -0.033  11.659  -1.407  1.00  0.00    -0.062 C 
ATOM     11  C0J MOL     1       1.326  11.831  -1.127  1.00  0.00    -0.135 C 
ATOM     12  C0I MOL     1       2.226  11.317  -2.109  1.00  0.00    -0.071 C 
ATOM     13  C0H MOL     1       1.747  10.702  -3.247  1.00  0.00    -0.152 C 
ENDBRANCH   7   8
ENDBRANCH   5   7
BRANCH   6  14
ATOM     14  C0O MOL     1       2.370   9.857  -6.751  1.00  0.00     0.092 C 
BRANCH  14  15
ATOM     15  N0P MOL     1       1.840  10.587  -7.947  1.00  0.00    -0.153 N 
ATOM     16  H0Q MOL     1       1.191  10.010  -8.455  1.00  0.00     0.257 HD
ATOM     17  H0R MOL     1       1.263  11.351  -7.607  1.00  0.00     0.244 HD
ATOM     18  H0S MOL     1       2.542  10.898  -8.604  1.00  0.00     0.246 HD
ENDBRANCH  14  15
ENDBRANCH   6  14
BRANCH   4  19
ATOM     19  C0A MOL     1      -1.630   7.682  -4.387  1.00  0.00    -0.219 C 
BRANCH  19  20
ATOM     20  C0B MOL     1      -1.660   7.204  -2.899  1.00  0.00     0.819 C 
ATOM     21  N0C MOL     1      -1.791   5.930  -2.688  1.00  0.00    -0.993 N 
ATOM     22  H13 MOL     1      -1.816   5.341  -3.517  1.00  0.00     0.395 HD
ATOM     23  H14 MOL     1      -1.900   5.576  -1.756  1.00  0.00     0.440 HD
ATOM     24  O0D MOL     1      -1.478   7.993  -1.989  1.00  0.00    -0.614 OA
ENDBRANCH  19  20
ENDBRANCH   4  19
BRANCH   1  25
ATOM     25  C01 MOL     1       3.344   7.209  -7.596  1.00  0.00    -0.066 C 
ATOM     26  C00 MOL     1       2.974   7.253  -9.156  1.00  0.00    -0.126 C 
ENDBRANCH   1  25
BRANCH   2  27
ATOM     27  C04 MOL     1       1.693   4.774  -6.567  1.00  0.00    -0.266 C 
BRANCH  27  28
ATOM     28  C05 MOL     1       0.862   4.121  -7.642  1.00  0.00     0.870 C 
ATOM     29  O06 MOL     1      -0.178   3.525  -7.438  1.00  0.00    -0.820 OA
ATOM     30  O07 MOL     1       1.238   4.272  -8.854  1.00  0.00    -0.676 OA
ENDBRANCH  27  28
ENDBRANCH   2  27
TORSDOF 9
ENDMDL
MODEL 3
REMARK VINA RESULT:      -6.0      3.369      6.897
REMARK  9 active torsions:
REMARK  status: ('A' for Active; 'I' for Inactive)
REMARK    1  A    between atoms: C01_2  and  C02_3 
REMARK    2  A    between atoms: C03_4  and  C04_5 
REMARK    3  A    between atoms: C04_5  and  C05_6 
REMARK    4  A    between atoms: C09_10  and  C0A_11 
REMARK    5  A    between atoms: C0A_11  and  C0B_12 
REMARK       I    between atoms: C0B_12  and  N0C_13 
REMARK    6  A    between atoms: C0E_15  and  C0F_16 
REMARK    7  A    between atoms: C0F_16  and  C0G_17 
REMARK    8  A    between atoms: C0N_23  and  C0O_24 
REMARK    9  A    between atoms: C0O_24  and  N0P_25 
ROOT
ATOM      1  C02 MOL     1       0.698  11.097  -2.314  1.00  0.00    -0.044 C 
ATOM      2  C03 MOL     1       2.021  11.196  -2.766  1.00  0.00     0.129 C 
ATOM      3  C08 MOL     1       2.529  10.411  -3.877  1.00  0.00    -0.316 C 
ATOM      4  C09 MOL     1       1.632   9.643  -4.597  1.00  0.00     0.109 C 
ATOM      5  C0E MOL     1       0.350   9.447  -4.172  1.00  0.00    -0.064 C 
ATOM      6  C0N MOL     1      -0.146  10.240  -3.110  1.00  0.00    -0.120 C 
ENDROOT
BRANCH   5   7
ATOM      7  C0F MOL     1      -0.545   8.496  -4.950  1.00  0.00     0.047 C 
BRANCH   7   8
ATOM      8  C0G MOL     1      -0.588   7.039  -4.578  1.00  0.00     0.171 C 
ATOM      9  C0M MOL     1      -1.507   6.549  -3.627  1.00  0.00    -0.195 C 
ATOM     10  C0K MOL     1      -1.526   5.176  -3.270  1.00  0.00    -0.062 C 
ATOM     11  C0J MOL     1      -0.534   4.291  -3.701  1.00  0.00    -0.135 C 
ATOM     12  C0I MOL     1       0.403   4.825  -4.636  1.00  0.00    -0.071 C 
ATOM     13  C0H MOL     1       0.305   6.134  -5.058  1.00  0.00    -0.152 C 
ENDBRANCH   7   8
ENDBRANCH   5   7
BRANCH   6  14
ATOM     14  C0O MOL     1      -1.631  10.113  -2.635  1.00  0.00     0.092 C 
BRANCH  14  15
ATOM     15  N0P MOL     1      -2.677  10.688  -3.540  1.00  0.00    -0.153 N 
ATOM     16  H0Q MOL     1      -3.163  11.443  -3.084  1.00  0.00     0.257 HD
ATOM     17  H0R MOL     1      -2.196  11.146  -4.309  1.00  0.00     0.244 HD
ATOM     18  H0S MOL     1      -3.375  10.032  -3.859  1.00  0.00     0.246 HD
ENDBRANCH  14  15
ENDBRANCH   6  14
BRANCH   4  19
ATOM     19  C0A MOL     1       2.157   9.074  -5.935  1.00  0.00    -0.219 C 
BRANCH  19  20
ATOM     20  C0B MOL     1       2.291  10.115  -7.093  1.00  0.00     0.819 C 
ATOM     21  N0C MOL     1       1.219  10.385  -7.774  1.00  0.00    -0.993 N 
ATOM     22  H13 MOL     1       0.366   9.928  -7.462  1.00  0.00     0.395 HD
ATOM     23  H14 MOL     1       1.263  10.982  -8.579  1.00  0.00     0.440 HD
ATOM     24  O0D MOL     1       3.340  10.705  -7.280  1.00  0.00    -0.614 OA
ENDBRANCH  19  20
ENDBRANCH   4  19
BRANCH   1  25
ATOM     25  C01 MOL     1       0.154  11.885  -1.102  1.00  0.00    -0.066 C 
ATOM     26  C00 MOL     1       0.390  11.106   0.280  1.00  0.00    -0.126 C 
ENDBRANCH   1  25
BRANCH   2  27
ATOM     27  C04 MOL     1       3.101  12.023  -2.106  1.00  0.00    -0.266 C 
BRANCH  27  28
ATOM     28  C05 MOL     1       4.161  11.236  -1.377  1.00  0.00     0.870 C 
ATOM     29  O06 MOL     1       5.354  11.453  -1.460  1.00  0.00    -0.820 OA
ATOM     30  O07 MOL     1       3.771  10.334  -0.560  1.00  0.00    -0.676 OA
ENDBRANCH  27  28
ENDBRANCH   2  27
TORSDOF 9
ENDMDL
MODEL 4
REMARK VINA RESULT:      -6.0      3.479      6.902
REMARK  9 active torsions:
REMARK  status: ('A' for Active; 'I' for Inactive)
REMARK    1  A    between atoms: C01_2  and  C02_3 
REMARK    2  A    between atoms: C03_4  and  C04_5 
REMARK    3  A    between atoms: C04_5  and  C05_6 
REMARK    4  A    between atoms: C09_10  and  C0A_11 
REMARK    5  A    between atoms: C0A_11  and  C0B_12 
REMARK       I    between atoms: C0B_12  and  N0C_13 
REMARK    6  A    between atoms: C0E_15  and  C0F_16 
REMARK    7  A    between atoms: C0F_16  and  C0G_17 
REMARK    8  A    between atoms: C0N_23  and  C0O_24 
REMARK    9  A    between atoms: C0O_24  and  N0P_25 
ROOT
ATOM      1  C02 MOL     1       2.315  10.023  -0.625  1.00  0.00    -0.044 C 
ATOM      2  C03 MOL     1       1.237  10.781  -0.147  1.00  0.00     0.129 C 
ATOM      3  C08 MOL     1      -0.042  10.841  -0.832  1.00  0.00    -0.316 C 
ATOM      4  C09 MOL     1      -0.239  10.009  -1.918  1.00  0.00     0.109 C 
ATOM      5  C0E MOL     1       0.785   9.300  -2.477  1.00  0.00    -0.064 C 
ATOM      6  C0N MOL     1       2.017   9.220  -1.786  1.00  0.00    -0.120 C 
ENDROOT
BRANCH   5   7
ATOM      7  C0F MOL     1       0.520   8.498  -3.741  1.00  0.00     0.047 C 
BRANCH   7   8
ATOM      8  C0G MOL     1       0.163   7.040  -3.638  1.00  0.00     0.171 C 
ATOM      9  C0M MOL     1       1.047   6.033  -4.079  1.00  0.00    -0.195 C 
ATOM     10  C0K MOL     1       0.692   4.661  -3.992  1.00  0.00    -0.062 C 
ATOM     11  C0J MOL     1      -0.599   4.257  -3.640  1.00  0.00    -0.135 C 
ATOM     12  C0I MOL     1      -1.481   5.302  -3.232  1.00  0.00    -0.071 C 
ATOM     13  C0H MOL     1      -1.053   6.612  -3.205  1.00  0.00    -0.152 C 
ENDBRANCH   7   8
ENDBRANCH   5   7
BRANCH   6  14
ATOM     14  C0O MOL     1       3.198   8.358  -2.341  1.00  0.00     0.092 C 
BRANCH  14  15
ATOM     15  N0P MOL     1       4.048   8.986  -3.402  1.00  0.00    -0.153 N 
ATOM     16  H0Q MOL     1       3.492   9.219  -4.208  1.00  0.00     0.257 HD
ATOM     17  H0R MOL     1       4.351   9.891  -3.054  1.00  0.00     0.244 HD
ATOM     18  H0S MOL     1       4.820   8.420  -3.724  1.00  0.00     0.246 HD
ENDBRANCH  14  15
ENDBRANCH   6  14
BRANCH   4  19
ATOM     19  C0A MOL     1      -1.697   9.890  -2.419  1.00  0.00    -0.219 C 
BRANCH  19  20
ATOM     20  C0B MOL     1      -2.011  10.669  -3.737  1.00  0.00     0.819 C 
ATOM     21  N0C MOL     1      -3.035  10.272  -4.430  1.00  0.00    -0.993 N 
ATOM     22  H13 MOL     1      -3.578   9.512  -4.028  1.00  0.00     0.395 HD
ATOM     23  H14 MOL     1      -3.234  10.680  -5.325  1.00  0.00     0.440 HD
ATOM     24  O0D MOL     1      -1.369  11.657  -4.043  1.00  0.00    -0.614 OA
ENDBRANCH  19  20
ENDBRANCH   4  19
BRANCH   1  25
ATOM     25  C01 MOL     1       3.698   9.988   0.062  1.00  0.00    -0.066 C 
ATOM     26  C00 MOL     1       4.660  11.161  -0.458  1.00  0.00    -0.126 C 
ENDBRANCH   1  25
BRANCH   2  27
ATOM     27  C04 MOL     1       1.292  11.705   1.049  1.00  0.00    -0.266 C 
BRANCH  27  28
ATOM     28  C05 MOL     1       0.814  13.113   0.798  1.00  0.00     0.870 C 
ATOM     29  O06 MOL     1      -0.211  13.580   1.256  1.00  0.00    -0.820 OA
ATOM     30  O07 MOL     1       1.576  13.885   0.124  1.00  0.00    -0.676 OA
ENDBRANCH  27  28
ENDBRANCH   2  27
TORSDOF 9
ENDMDL
MODEL 5
REMARK VINA RESULT:      -5.9     14.820     16.567
REMARK  9 active torsions:
REMARK  status: ('A' for Active; 'I' for Inactive)
REMARK    1  A    between atoms: C01_2  and  C02_3 
REMARK    2  A    between atoms: C03_4  and  C04_5 
REMARK    3  A    between atoms: C04_5  and  C05_6 
REMARK    4  A    between atoms: C09_10  and  C0A_11 
REMARK    5  A    between atoms: C0A_11  and  C0B_12 
REMARK       I    between atoms: C0B_12  and  N0C_13 
REMARK    6  A    between atoms: C0E_15  and  C0F_16 
REMARK    7  A    between atoms: C0F_16  and  C0G_17 
REMARK    8  A    between atoms: C0N_23  and  C0O_24 
REMARK    9  A    between atoms: C0O_24  and  N0P_25 
ROOT
ATOM      1  C02 MOL     1      -0.975   8.055 -20.298  1.00  0.00    -0.044 C 
ATOM      2  C03 MOL     1      -0.938   6.780 -19.719  1.00  0.00     0.129 C 
ATOM      3  C08 MOL     1      -2.142   6.036 -19.389  1.00  0.00    -0.316 C 
ATOM      4  C09 MOL     1      -3.359   6.553 -19.792  1.00  0.00     0.109 C 
ATOM      5  C0E MOL     1      -3.472   7.816 -20.296  1.00  0.00    -0.064 C 
ATOM      6  C0N MOL     1      -2.296   8.521 -20.645  1.00  0.00    -0.120 C 
ENDROOT
BRANCH   5   7
ATOM      7  C0F MOL     1      -4.857   8.362 -20.608  1.00  0.00     0.047 C 
BRANCH   7   8
ATOM      8  C0G MOL     1      -5.493   8.064 -21.939  1.00  0.00     0.171 C 
ATOM      9  C0M MOL     1      -5.083   8.724 -23.115  1.00  0.00    -0.195 C 
ATOM     10  C0K MOL     1      -5.703   8.447 -24.361  1.00  0.00    -0.062 C 
ATOM     11  C0J MOL     1      -6.851   7.654 -24.452  1.00  0.00    -0.135 C 
ATOM     12  C0I MOL     1      -7.263   7.028 -23.237  1.00  0.00    -0.071 C 
ATOM     13  C0H MOL     1      -6.551   7.220 -22.072  1.00  0.00    -0.152 C 
ENDBRANCH   7   8
ENDBRANCH   5   7
BRANCH   6  14
ATOM     14  C0O MOL     1      -2.369   9.939 -21.300  1.00  0.00     0.092 C 
BRANCH  14  15
ATOM     15  N0P MOL     1      -1.976  10.033 -22.742  1.00  0.00    -0.153 N 
ATOM     16  H0Q MOL     1      -1.204  10.669 -22.858  1.00  0.00     0.257 HD
ATOM     17  H0R MOL     1      -1.586   9.135 -23.012  1.00  0.00     0.244 HD
ATOM     18  H0S MOL     1      -2.710  10.337 -23.368  1.00  0.00     0.246 HD
ENDBRANCH  14  15
ENDBRANCH   6  14
BRANCH   4  19
ATOM     19  C0A MOL     1      -4.565   5.592 -19.688  1.00  0.00    -0.219 C 
BRANCH  19  20
ATOM     20  C0B MOL     1      -5.137   5.398 -18.246  1.00  0.00     0.819 C 
ATOM     21  N0C MOL     1      -4.743   4.350 -17.589  1.00  0.00    -0.993 N 
ATOM     22  H13 MOL     1      -4.054   3.764 -18.054  1.00  0.00     0.395 HD
ATOM     23  H14 MOL     1      -5.140   4.130 -16.694  1.00  0.00     0.440 HD
ATOM     24  O0D MOL     1      -5.850   6.246 -17.741  1.00  0.00    -0.614 OA
ENDBRANCH  19  20
ENDBRANCH   4  19
BRANCH   1  25
ATOM     25  C01 MOL     1       0.292   8.882 -20.609  1.00  0.00    -0.066 C 
ATOM     26  C00 MOL     1       0.754   9.771 -19.356  1.00  0.00    -0.126 C 
ENDBRANCH   1  25
BRANCH   2  27
ATOM     27  C04 MOL     1       0.317   6.071 -19.263  1.00  0.00    -0.266 C 
BRANCH  27  28
ATOM     28  C05 MOL     1       0.534   6.039 -17.771  1.00  0.00     0.870 C 
ATOM     29  O06 MOL     1       0.490   7.018 -17.051  1.00  0.00    -0.820 OA
ATOM     30  O07 MOL     1       0.696   4.898 -17.221  1.00  0.00    -0.676 OA
ENDBRANCH  27  28
ENDBRANCH   2  27
TORSDOF 9
ENDMDL
MODEL 6
REMARK VINA RESULT:      -5.8      3.424      7.155
REMARK  9 active torsions:
REMARK  status: ('A' for Active; 'I' for Inactive)
REMARK    1  A    between atoms: C01_2  and  C02_3 
REMARK    2  A    between atoms: C03_4  and  C04_5 
REMARK    3  A    between atoms: C04_5  and  C05_6 
REMARK    4  A    between atoms: C09_10  and  C0A_11 
REMARK    5  A    between atoms: C0A_11  and  C0B_12 
REMARK       I    between atoms: C0B_12  and  N0C_13 
REMARK    6  A    between atoms: C0E_15  and  C0F_16 
REMARK    7  A    between atoms: C0F_16  and  C0G_17 
REMARK    8  A    between atoms: C0N_23  and  C0O_24 
REMARK    9  A    between atoms: C0O_24  and  N0P_25 
ROOT
ATOM      1  C02 MOL     1      -0.585   9.010  -2.774  1.00  0.00    -0.044 C 
ATOM      2  C03 MOL     1       0.652   9.347  -2.207  1.00  0.00     0.129 C 
ATOM      3  C08 MOL     1       1.791   8.445  -2.223  1.00  0.00    -0.316 C 
ATOM      4  C09 MOL     1       1.684   7.272  -2.946  1.00  0.00     0.109 C 
ATOM      5  C0E MOL     1       0.493   6.850  -3.461  1.00  0.00    -0.064 C 
ATOM      6  C0N MOL     1      -0.603   7.747  -3.471  1.00  0.00    -0.120 C 
ENDROOT
BRANCH   5   7
ATOM      7  C0F MOL     1       0.425   5.493  -4.143  1.00  0.00     0.047 C 
BRANCH   7   8
ATOM      8  C0G MOL     1       0.884   5.351  -5.569  1.00  0.00     0.171 C 
ATOM      9  C0M MOL     1       1.155   6.479  -6.370  1.00  0.00    -0.195 C 
ATOM     10  C0K MOL     1       1.570   6.333  -7.719  1.00  0.00    -0.062 C 
ATOM     11  C0J MOL     1       1.557   5.092  -8.363  1.00  0.00    -0.135 C 
ATOM     12  C0I MOL     1       1.243   3.973  -7.534  1.00  0.00    -0.071 C 
ATOM     13  C0H MOL     1       0.974   4.146  -6.193  1.00  0.00    -0.152 C 
ENDBRANCH   7   8
ENDBRANCH   5   7
BRANCH   6  14
ATOM     14  C0O MOL     1      -1.967   7.345  -4.120  1.00  0.00     0.092 C 
BRANCH  14  15
ATOM     15  N0P MOL     1      -2.158   7.709  -5.561  1.00  0.00    -0.153 N 
ATOM     16  H0Q MOL     1      -2.283   6.882  -6.121  1.00  0.00     0.257 HD
ATOM     17  H0R MOL     1      -3.052   8.186  -5.639  1.00  0.00     0.244 HD
ATOM     18  H0S MOL     1      -1.403   8.238  -5.973  1.00  0.00     0.246 HD
ENDBRANCH  14  15
ENDBRANCH   6  14
BRANCH   4  19
ATOM     19  C0A MOL     1       3.005   6.503  -3.179  1.00  0.00    -0.219 C 
BRANCH  19  20
ATOM     20  C0B MOL     1       4.287   7.201  -2.621  1.00  0.00     0.819 C 
ATOM     21  N0C MOL     1       4.674   6.864  -1.429  1.00  0.00    -0.993 N 
ATOM     22  H13 MOL     1       4.133   6.132  -0.975  1.00  0.00     0.395 HD
ATOM     23  H14 MOL     1       5.440   7.339  -0.988  1.00  0.00     0.440 HD
ATOM     24  O0D MOL     1       4.934   7.962  -3.319  1.00  0.00    -0.614 OA
ENDBRANCH  19  20
ENDBRANCH   4  19
BRANCH   1  25
ATOM     25  C01 MOL     1      -1.821   9.934  -2.722  1.00  0.00    -0.066 C 
ATOM     26  C00 MOL     1      -1.756  11.092  -3.830  1.00  0.00    -0.126 C 
ENDBRANCH   1  25
BRANCH   2  27
ATOM     27  C04 MOL     1       0.930  10.609  -1.423  1.00  0.00    -0.266 C 
BRANCH  27  28
ATOM     28  C05 MOL     1       0.437  10.604   0.002  1.00  0.00     0.870 C 
ATOM     29  O06 MOL     1       0.004   9.622   0.574  1.00  0.00    -0.820 OA
ATOM     30  O07 MOL     1       0.556  11.685   0.673  1.00  0.00    -0.676 OA
ENDBRANCH  27  28
ENDBRANCH   2  27
TORSDOF 9
ENDMDL
MODEL 7
REMARK VINA RESULT:      -5.8      3.006      6.515
REMARK  9 active torsions:
REMARK  status: ('A' for Active; 'I' for Inactive)
REMARK    1  A    between atoms: C01_2  and  C02_3 
REMARK    2  A    between atoms: C03_4  and  C04_5 
REMARK    3  A    between atoms: C04_5  and  C05_6 
REMARK    4  A    between atoms: C09_10  and  C0A_11 
REMARK    5  A    between atoms: C0A_11  and  C0B_12 
REMARK       I    between atoms: C0B_12  and  N0C_13 
REMARK    6  A    between atoms: C0E_15  and  C0F_16 
REMARK    7  A    between atoms: C0F_16  and  C0G_17 
REMARK    8  A    between atoms: C0N_23  and  C0O_24 
REMARK    9  A    between atoms: C0O_24  and  N0P_25 
ROOT
ATOM      1  C02 MOL     1      -0.159   5.707  -3.849  1.00  0.00    -0.044 C 
ATOM      2  C03 MOL     1       0.205   7.018  -3.513  1.00  0.00     0.129 C 
ATOM      3  C08 MOL     1       1.244   7.747  -4.220  1.00  0.00    -0.316 C 
ATOM      4  C09 MOL     1       1.791   7.171  -5.351  1.00  0.00     0.109 C 
ATOM      5  C0E MOL     1       1.534   5.875  -5.694  1.00  0.00    -0.064 C 
ATOM      6  C0N MOL     1       0.498   5.183  -5.022  1.00  0.00    -0.120 C 
ENDROOT
BRANCH   5   7
ATOM      7  C0F MOL     1       2.262   5.271  -6.884  1.00  0.00     0.047 C 
BRANCH   7   8
ATOM      8  C0G MOL     1       3.514   4.467  -6.663  1.00  0.00     0.171 C 
ATOM      9  C0M MOL     1       3.801   3.324  -7.438  1.00  0.00    -0.195 C 
ATOM     10  C0K MOL     1       4.977   2.563  -7.208  1.00  0.00    -0.062 C 
ATOM     11  C0J MOL     1       5.802   2.800  -6.105  1.00  0.00    -0.135 C 
ATOM     12  C0I MOL     1       5.465   3.942  -5.319  1.00  0.00    -0.071 C 
ATOM     13  C0H MOL     1       4.387   4.734  -5.656  1.00  0.00    -0.152 C 
ENDBRANCH   7   8
ENDBRANCH   5   7
BRANCH   6  14
ATOM     14  C0O MOL     1       0.108   3.724  -5.428  1.00  0.00     0.092 C 
BRANCH  14  15
ATOM     15  N0P MOL     1      -0.629   3.561  -6.721  1.00  0.00    -0.153 N 
ATOM     16  H0Q MOL     1      -1.624   3.578  -6.566  1.00  0.00     0.257 HD
ATOM     17  H0R MOL     1      -0.461   4.396  -7.275  1.00  0.00     0.244 HD
ATOM     18  H0S MOL     1      -0.421   2.714  -7.230  1.00  0.00     0.246 HD
ENDBRANCH  14  15
ENDBRANCH   6  14
BRANCH   4  19
ATOM     19  C0A MOL     1       2.660   8.101  -6.227  1.00  0.00    -0.219 C 
BRANCH  19  20
ATOM     20  C0B MOL     1       1.866   9.008  -7.222  1.00  0.00     0.819 C 
ATOM     21  N0C MOL     1       1.726   8.574  -8.437  1.00  0.00    -0.993 N 
ATOM     22  H13 MOL     1       2.107   7.650  -8.627  1.00  0.00     0.395 HD
ATOM     23  H14 MOL     1       1.299   9.150  -9.139  1.00  0.00     0.440 HD
ATOM     24  O0D MOL     1       1.333  10.034  -6.838  1.00  0.00    -0.614 OA
ENDBRANCH  19  20
ENDBRANCH   4  19
BRANCH   1  25
ATOM     25  C01 MOL     1      -1.224   4.898  -3.078  1.00  0.00    -0.066 C 
ATOM     26  C00 MOL     1      -2.716   5.295  -3.514  1.00  0.00    -0.126 C 
ENDBRANCH   1  25
BRANCH   2  27
ATOM     27  C04 MOL     1      -0.334   7.790  -2.330  1.00  0.00    -0.266 C 
BRANCH  27  28
ATOM     28  C05 MOL     1      -1.530   8.662  -2.621  1.00  0.00     0.870 C 
ATOM     29  O06 MOL     1      -2.097   8.711  -3.695  1.00  0.00    -0.820 OA
ATOM     30  O07 MOL     1      -2.024   9.331  -1.651  1.00  0.00    -0.676 OA
ENDBRANCH  27  28
ENDBRANCH   2  27
TORSDOF 9
ENDMDL
MODEL 8
REMARK VINA RESULT:      -5.7      1.861      2.362
REMARK  9 active torsions:
REMARK  status: ('A' for Active; 'I' for Inactive)
REMARK    1  A    between atoms: C01_2  and  C02_3 
REMARK    2  A    between atoms: C03_4  and  C04_5 
REMARK    3  A    between atoms: C04_5  and  C05_6 
REMARK    4  A    between atoms: C09_10  and  C0A_11 
REMARK    5  A    between atoms: C0A_11  and  C0B_12 
REMARK       I    between atoms: C0B_12  and  N0C_13 
REMARK    6  A    between atoms: C0E_15  and  C0F_16 
REMARK    7  A    between atoms: C0F_16  and  C0G_17 
REMARK    8  A    between atoms: C0N_23  and  C0O_24 
REMARK    9  A    between atoms: C0O_24  and  N0P_25 
ROOT
ATOM      1  C02 MOL     1       2.893   6.203  -5.582  1.00  0.00    -0.044 C 
ATOM      2  C03 MOL     1       1.869   5.246  -5.550  1.00  0.00     0.129 C 
ATOM      3  C08 MOL     1       0.788   5.289  -4.581  1.00  0.00    -0.316 C 
ATOM      4  C09 MOL     1       0.697   6.393  -3.754  1.00  0.00     0.109 C 
ATOM      5  C0E MOL     1       1.694   7.324  -3.684  1.00  0.00    -0.064 C 
ATOM      6  C0N MOL     1       2.726   7.294  -4.652  1.00  0.00    -0.120 C 
ENDROOT
BRANCH   5   7
ATOM      7  C0F MOL     1       1.580   8.449  -2.668  1.00  0.00     0.047 C 
BRANCH   7   8
ATOM      8  C0G MOL     1       0.654   9.604  -2.935  1.00  0.00     0.171 C 
ATOM      9  C0M MOL     1      -0.058  10.233  -1.892  1.00  0.00    -0.195 C 
ATOM     10  C0K MOL     1      -0.942  11.311  -2.159  1.00  0.00    -0.062 C 
ATOM     11  C0J MOL     1      -1.283  11.677  -3.464  1.00  0.00    -0.135 C 
ATOM     12  C0I MOL     1      -0.572  10.997  -4.499  1.00  0.00    -0.071 C 
ATOM     13  C0H MOL     1       0.378  10.047  -4.191  1.00  0.00    -0.152 C 
ENDBRANCH   7   8
ENDBRANCH   5   7
BRANCH   6  14
ATOM     14  C0O MOL     1       3.848   8.382  -4.668  1.00  0.00     0.092 C 
BRANCH  14  15
ATOM     15  N0P MOL     1       3.613   9.577  -5.540  1.00  0.00    -0.153 N 
ATOM     16  H0Q MOL     1       3.003  10.234  -5.082  1.00  0.00     0.257 HD
ATOM     17  H0R MOL     1       4.492  10.079  -5.613  1.00  0.00     0.244 HD
ATOM     18  H0S MOL     1       3.209   9.375  -6.444  1.00  0.00     0.246 HD
ENDBRANCH  14  15
ENDBRANCH   6  14
BRANCH   4  19
ATOM     19  C0A MOL     1      -0.623   6.534  -2.963  1.00  0.00    -0.219 C 
BRANCH  19  20
ATOM     20  C0B MOL     1      -1.916   6.622  -3.838  1.00  0.00     0.819 C 
ATOM     21  N0C MOL     1      -2.858   5.764  -3.591  1.00  0.00    -0.993 N 
ATOM     22  H13 MOL     1      -2.693   5.133  -2.811  1.00  0.00     0.395 HD
ATOM     23  H14 MOL     1      -3.673   5.720  -4.175  1.00  0.00     0.440 HD
ATOM     24  O0D MOL     1      -2.054   7.517  -4.653  1.00  0.00    -0.614 OA
ENDBRANCH  19  20
ENDBRANCH   4  19
BRANCH   1  25
ATOM     25  C01 MOL     1       4.078   6.145  -6.571  1.00  0.00    -0.066 C 
ATOM     26  C00 MOL     1       5.274   5.225  -6.026  1.00  0.00    -0.126 C 
ENDBRANCH   1  25
BRANCH   2  27
ATOM     27  C04 MOL     1       1.813   4.009  -6.418  1.00  0.00    -0.266 C 
BRANCH  27  28
ATOM     28  C05 MOL     1       0.847   4.076  -7.573  1.00  0.00     0.870 C 
ATOM     29  O06 MOL     1       1.074   4.644  -8.624  1.00  0.00    -0.820 OA
ATOM     30  O07 MOL     1      -0.248   3.427  -7.467  1.00  0.00    -0.676 OA
ENDBRANCH  27  28
ENDBRANCH   2  27
TORSDOF 9
ENDMDL
MODEL 9
REMARK VINA RESULT:      -5.6     20.404     22.580
REMARK  9 active torsions:
REMARK  status: ('A' for Active; 'I' for Inactive)
REMARK    1  A    between atoms: C01_2  and  C02_3 
REMARK    2  A    between atoms: C03_4  and  C04_5 
REMARK    3  A    between atoms: C04_5  and  C05_6 
REMARK    4  A    between atoms: C09_10  and  C0A_11 
REMARK    5  A    between atoms: C0A_11  and  C0B_12 
REMARK       I    between atoms: C0B_12  and  N0C_13 
REMARK    6  A    between atoms: C0E_15  and  C0F_16 
REMARK    7  A    between atoms: C0F_16  and  C0G_17 
REMARK    8  A    between atoms: C0N_23  and  C0O_24 
REMARK    9  A    between atoms: C0O_24  and  N0P_25 
ROOT
ATOM      1  C02 MOL     1     -12.371   1.847  11.711  1.00  0.00    -0.044 C 
ATOM      2  C03 MOL     1     -11.309   2.361  10.955  1.00  0.00     0.129 C 
ATOM      3  C08 MOL     1      -9.954   1.849  11.061  1.00  0.00    -0.316 C 
ATOM      4  C09 MOL     1      -9.741   0.724  11.834  1.00  0.00     0.109 C 
ATOM      5  C0E MOL     1     -10.712   0.216  12.649  1.00  0.00    -0.064 C 
ATOM      6  C0N MOL     1     -12.036   0.698  12.516  1.00  0.00    -0.120 C 
ENDROOT
BRANCH   5   7
ATOM      7  C0F MOL     1     -10.371  -0.953  13.560  1.00  0.00     0.047 C 
BRANCH   7   8
ATOM      8  C0G MOL     1     -10.315  -0.746  15.049  1.00  0.00     0.171 C 
ATOM      9  C0M MOL     1     -10.453  -1.824  15.948  1.00  0.00    -0.195 C 
ATOM     10  C0K MOL     1     -10.416  -1.614  17.351  1.00  0.00    -0.062 C 
ATOM     11  C0J MOL     1     -10.424  -0.329  17.902  1.00  0.00    -0.135 C 
ATOM     12  C0I MOL     1     -10.321   0.743  16.966  1.00  0.00    -0.071 C 
ATOM     13  C0H MOL     1     -10.225   0.488  15.614  1.00  0.00    -0.152 C 
ENDBRANCH   7   8
ENDBRANCH   5   7
BRANCH   6  14
ATOM     14  C0O MOL     1     -13.202   0.097  13.367  1.00  0.00     0.092 C 
BRANCH  14  15
ATOM     15  N0P MOL     1     -13.903  -1.098  12.797  1.00  0.00    -0.153 N 
ATOM     16  H0Q MOL     1     -13.444  -1.947  13.083  1.00  0.00     0.257 HD
ATOM     17  H0R MOL     1     -14.813  -1.158  13.242  1.00  0.00     0.244 HD
ATOM     18  H0S MOL     1     -13.965  -1.117  11.788  1.00  0.00     0.246 HD
ENDBRANCH  14  15
ENDBRANCH   6  14
BRANCH   4  19
ATOM     19  C0A MOL     1      -8.360   0.048  11.674  1.00  0.00    -0.219 C 
BRANCH  19  20
ATOM     20  C0B MOL     1      -7.358   0.801  10.739  1.00  0.00     0.819 C 
ATOM     21  N0C MOL     1      -7.356   0.472   9.484  1.00  0.00    -0.993 N 
ATOM     22  H13 MOL     1      -8.047  -0.221   9.204  1.00  0.00     0.395 HD
ATOM     23  H14 MOL     1      -6.679   0.861   8.855  1.00  0.00     0.440 HD
ATOM     24  O0D MOL     1      -6.676   1.716  11.167  1.00  0.00    -0.614 OA
ENDBRANCH  19  20
ENDBRANCH   4  19
BRANCH   1  25
ATOM     25  C01 MOL     1     -13.807   2.412  11.650  1.00  0.00    -0.066 C 
ATOM     26  C00 MOL     1     -14.642   1.807  10.421  1.00  0.00    -0.126 C 
ENDBRANCH   1  25
BRANCH   2  27
ATOM     27  C04 MOL     1     -11.400   3.560  10.038  1.00  0.00    -0.266 C 
BRANCH  27  28
ATOM     28  C05 MOL     1     -11.177   4.896  10.700  1.00  0.00     0.870 C 
ATOM     29  O06 MOL     1     -10.086   5.410  10.856  1.00  0.00    -0.820 OA
ATOM     30  O07 MOL     1     -12.209   5.564  11.049  1.00  0.00    -0.676 OA
ENDBRANCH  27  28
ENDBRANCH   2  27
TORSDOF 9
ENDMDL
MODEL 10
REMARK VINA RESULT:      -5.6     15.960     17.860
REMARK  9 active torsions:
REMARK  status: ('A' for Active; 'I' for Inactive)
REMARK    1  A    between atoms: C01_2  and  C02_3 
REMARK    2  A    between atoms: C03_4  and  C04_5 
REMARK    3  A    between atoms: C04_5  and  C05_6 
REMARK    4  A    between atoms: C09_10  and  C0A_11 
REMARK    5  A    between atoms: C0A_11  and  C0B_12 
REMARK       I    between atoms: C0B_12  and  N0C_13 
REMARK    6  A    between atoms: C0E_15  and  C0F_16 
REMARK    7  A    between atoms: C0F_16  and  C0G_17 
REMARK    8  A    between atoms: C0N_23  and  C0O_24 
REMARK    9  A    between atoms: C0O_24  and  N0P_25 
ROOT
ATOM      1  C02 MOL     1      -4.007   6.516 -19.515  1.00  0.00    -0.044 C 
ATOM      2  C03 MOL     1      -2.634   6.375 -19.757  1.00  0.00     0.129 C 
ATOM      3  C08 MOL     1      -1.963   7.033 -20.865  1.00  0.00    -0.316 C 
ATOM      4  C09 MOL     1      -2.685   7.940 -21.618  1.00  0.00     0.109 C 
ATOM      5  C0E MOL     1      -4.037   8.073 -21.482  1.00  0.00    -0.064 C 
ATOM      6  C0N MOL     1      -4.677   7.455 -20.382  1.00  0.00    -0.120 C 
ENDROOT
BRANCH   5   7
ATOM      7  C0F MOL     1      -4.783   9.004 -22.425  1.00  0.00     0.047 C 
BRANCH   7   8
ATOM      8  C0G MOL     1      -5.386   8.457 -23.690  1.00  0.00     0.171 C 
ATOM      9  C0M MOL     1      -4.821   8.731 -24.953  1.00  0.00    -0.195 C 
ATOM     10  C0K MOL     1      -5.410   8.224 -26.141  1.00  0.00    -0.062 C 
ATOM     11  C0J MOL     1      -6.656   7.591 -26.132  1.00  0.00    -0.135 C 
ATOM     12  C0I MOL     1      -7.219   7.360 -24.841  1.00  0.00    -0.071 C 
ATOM     13  C0H MOL     1      -6.549   7.753 -23.702  1.00  0.00    -0.152 C 
ENDBRANCH   7   8
ENDBRANCH   5   7
BRANCH   6  14
ATOM     14  C0O MOL     1      -6.209   7.641 -20.132  1.00  0.00     0.092 C 
BRANCH  14  15
ATOM     15  N0P MOL     1      -6.603   8.632 -19.081  1.00  0.00    -0.153 N 
ATOM     16  H0Q MOL     1      -7.240   9.315 -19.459  1.00  0.00     0.257 HD
ATOM     17  H0R MOL     1      -7.164   8.140 -18.392  1.00  0.00     0.244 HD
ATOM     18  H0S MOL     1      -5.836   9.139 -18.661  1.00  0.00     0.246 HD
ENDBRANCH  14  15
ENDBRANCH   6  14
BRANCH   4  19
ATOM     19  C0A MOL     1      -1.859   8.826 -22.578  1.00  0.00    -0.219 C 
BRANCH  19  20
ATOM     20  C0B MOL     1      -1.287  10.136 -21.944  1.00  0.00     0.819 C 
ATOM     21  N0C MOL     1      -1.490  11.244 -22.589  1.00  0.00    -0.993 N 
ATOM     22  H13 MOL     1      -2.050  11.172 -23.436  1.00  0.00     0.395 HD
ATOM     23  H14 MOL     1      -1.075  12.101 -22.274  1.00  0.00     0.440 HD
ATOM     24  O0D MOL     1      -0.753  10.115 -20.850  1.00  0.00    -0.614 OA
ENDBRANCH  19  20
ENDBRANCH   4  19
BRANCH   1  25
ATOM     25  C01 MOL     1      -4.746   5.784 -18.374  1.00  0.00    -0.066 C 
ATOM     26  C00 MOL     1      -4.585   4.191 -18.475  1.00  0.00    -0.126 C 
ENDBRANCH   1  25
BRANCH   2  27
ATOM     27  C04 MOL     1      -1.710   5.453 -18.994  1.00  0.00    -0.266 C 
BRANCH  27  28
ATOM     28  C05 MOL     1      -0.448   6.093 -18.472  1.00  0.00     0.870 C 
ATOM     29  O06 MOL     1      -0.418   6.939 -17.600  1.00  0.00    -0.820 OA
ATOM     30  O07 MOL     1       0.666   5.660 -18.924  1.00  0.00    -0.676 OA
ENDBRANCH  27  28
ENDBRANCH   2  27
TORSDOF 9
ENDMDL
MODEL 11
REMARK VINA RESULT:      -5.5      9.059     12.189
REMARK  9 active torsions:
REMARK  status: ('A' for Active; 'I' for Inactive)
REMARK    1  A    between atoms: C01_2  and  C02_3 
REMARK    2  A    between atoms: C03_4  and  C04_5 
REMARK    3  A    between atoms: C04_5  and  C05_6 
REMARK    4  A    between atoms: C09_10  and  C0A_11 
REMARK    5  A    between atoms: C0A_11  and  C0B_12 
REMARK       I    between atoms: C0B_12  and  N0C_13 
REMARK    6  A    between atoms: C0E_15  and  C0F_16 
REMARK    7  A    between atoms: C0F_16  and  C0G_17 
REMARK    8  A    between atoms: C0N_23  and  C0O_24 
REMARK    9  A    between atoms: C0O_24  and  N0P_25 
ROOT
ATOM      1  C02 MOL     1      -2.527  12.638   5.673  1.00  0.00    -0.044 C 
ATOM      2  C03 MOL     1      -2.539  13.584   4.638  1.00  0.00     0.129 C 
ATOM      3  C08 MOL     1      -1.637  13.510   3.501  1.00  0.00    -0.316 C 
ATOM      4  C09 MOL     1      -0.839  12.389   3.374  1.00  0.00     0.109 C 
ATOM      5  C0E MOL     1      -0.727  11.468   4.375  1.00  0.00    -0.064 C 
ATOM      6  C0N MOL     1      -1.631  11.528   5.462  1.00  0.00    -0.120 C 
ENDROOT
BRANCH   5   7
ATOM      7  C0F MOL     1       0.259  10.322   4.213  1.00  0.00     0.047 C 
BRANCH   7   8
ATOM      8  C0G MOL     1       1.584  10.373   4.924  1.00  0.00     0.171 C 
ATOM      9  C0M MOL     1       2.136   9.229   5.536  1.00  0.00    -0.195 C 
ATOM     10  C0K MOL     1       3.379   9.294   6.219  1.00  0.00    -0.062 C 
ATOM     11  C0J MOL     1       4.017  10.512   6.469  1.00  0.00    -0.135 C 
ATOM     12  C0I MOL     1       3.416  11.657   5.866  1.00  0.00    -0.071 C 
ATOM     13  C0H MOL     1       2.278  11.530   5.098  1.00  0.00    -0.152 C 
ENDBRANCH   7   8
ENDBRANCH   5   7
BRANCH   6  14
ATOM     14  C0O MOL     1      -1.600  10.452   6.596  1.00  0.00     0.092 C 
BRANCH  14  15
ATOM     15  N0P MOL     1      -0.608  10.665   7.698  1.00  0.00    -0.153 N 
ATOM     16  H0Q MOL     1      -0.837  11.493   8.224  1.00  0.00     0.257 HD
ATOM     17  H0R MOL     1      -0.733   9.915   8.371  1.00  0.00     0.244 HD
ATOM     18  H0S MOL     1       0.352  10.758   7.398  1.00  0.00     0.246 HD
ENDBRANCH  14  15
ENDBRANCH   6  14
BRANCH   4  19
ATOM     19  C0A MOL     1      -0.131  12.220   2.010  1.00  0.00    -0.219 C 
BRANCH  19  20
ATOM     20  C0B MOL     1       0.414  13.541   1.376  1.00  0.00     0.819 C 
ATOM     21  N0C MOL     1       1.509  14.029   1.872  1.00  0.00    -0.993 N 
ATOM     22  H13 MOL     1       1.951  13.479   2.605  1.00  0.00     0.395 HD
ATOM     23  H14 MOL     1       1.859  14.916   1.561  1.00  0.00     0.440 HD
ATOM     24  O0D MOL     1      -0.129  14.032   0.403  1.00  0.00    -0.614 OA
ENDBRANCH  19  20
ENDBRANCH   4  19
BRANCH   1  25
ATOM     25  C01 MOL     1      -3.442  12.728   6.914  1.00  0.00    -0.066 C 
ATOM     26  C00 MOL     1      -2.809  13.648   8.065  1.00  0.00    -0.126 C 
ENDBRANCH   1  25
BRANCH   2  27
ATOM     27  C04 MOL     1      -3.385  14.837   4.620  1.00  0.00    -0.266 C 
BRANCH  27  28
ATOM     28  C05 MOL     1      -4.848  14.623   4.324  1.00  0.00     0.870 C 
ATOM     29  O06 MOL     1      -5.720  14.588   5.171  1.00  0.00    -0.820 OA
ATOM     30  O07 MOL     1      -5.200  14.551   3.098  1.00  0.00    -0.676 OA
ENDBRANCH  27  28
ENDBRANCH   2  27
TORSDOF 9
ENDMDL
MODEL 12
REMARK VINA RESULT:      -5.5      3.278      6.334
REMARK  9 active torsions:
REMARK  status: ('A' for Active; 'I' for Inactive)
REMARK    1  A    between atoms: C01_2  and  C02_3 
REMARK    2  A    between atoms: C03_4  and  C04_5 
REMARK    3  A    between atoms: C04_5  and  C05_6 
REMARK    4  A    between atoms: C09_10  and  C0A_11 
REMARK    5  A    between atoms: C0A_11  and  C0B_12 
REMARK       I    between atoms: C0B_12  and  N0C_13 
REMARK    6  A    between atoms: C0E_15  and  C0F_16 
REMARK    7  A    between atoms: C0F_16  and  C0G_17 
REMARK    8  A    between atoms: C0N_23  and  C0O_24 
REMARK    9  A    between atoms: C0O_24  and  N0P_25 
ROOT
ATOM      1  C02 MOL     1       2.103   9.684  -1.237  1.00  0.00    -0.044 C 
ATOM      2  C03 MOL     1       0.760   9.996  -0.984  1.00  0.00     0.129 C 
ATOM      3  C08 MOL     1      -0.336   9.381  -1.713  1.00  0.00    -0.316 C 
ATOM      4  C09 MOL     1      -0.041   8.352  -2.588  1.00  0.00     0.109 C 
ATOM      5  C0E MOL     1       1.244   8.046  -2.931  1.00  0.00    -0.064 C 
ATOM      6  C0N MOL     1       2.305   8.625  -2.194  1.00  0.00    -0.120 C 
ENDROOT
BRANCH   5   7
ATOM      7  C0F MOL     1       1.489   6.980  -3.988  1.00  0.00     0.047 C 
BRANCH   7   8
ATOM      8  C0G MOL     1       1.771   7.390  -5.408  1.00  0.00     0.171 C 
ATOM      9  C0M MOL     1       1.730   8.742  -5.806  1.00  0.00    -0.195 C 
ATOM     10  C0K MOL     1       1.980   9.114  -7.153  1.00  0.00    -0.062 C 
ATOM     11  C0J MOL     1       2.099   8.162  -8.169  1.00  0.00    -0.135 C 
ATOM     12  C0I MOL     1       2.102   6.801  -7.739  1.00  0.00    -0.071 C 
ATOM     13  C0H MOL     1       1.988   6.487  -6.401  1.00  0.00    -0.152 C 
ENDBRANCH   7   8
ENDBRANCH   5   7
BRANCH   6  14
ATOM     14  C0O MOL     1       3.793   8.248  -2.492  1.00  0.00     0.092 C 
BRANCH  14  15
ATOM     15  N0P MOL     1       4.366   7.107  -1.710  1.00  0.00    -0.153 N 
ATOM     16  H0Q MOL     1       4.159   6.230  -2.160  1.00  0.00     0.257 HD
ATOM     17  H0R MOL     1       5.378   7.172  -1.773  1.00  0.00     0.244 HD
ATOM     18  H0S MOL     1       4.044   7.037  -0.755  1.00  0.00     0.246 HD
ENDBRANCH  14  15
ENDBRANCH   6  14
BRANCH   4  19
ATOM     19  C0A MOL     1      -1.251   7.539  -3.102  1.00  0.00    -0.219 C 
BRANCH  19  20
ATOM     20  C0B MOL     1      -2.000   8.166  -4.323  1.00  0.00     0.819 C 
ATOM     21  N0C MOL     1      -1.827   7.600  -5.478  1.00  0.00    -0.993 N 
ATOM     22  H13 MOL     1      -1.252   6.761  -5.483  1.00  0.00     0.395 HD
ATOM     23  H14 MOL     1      -2.215   8.007  -6.309  1.00  0.00     0.440 HD
ATOM     24  O0D MOL     1      -2.777   9.090  -4.167  1.00  0.00    -0.614 OA
ENDBRANCH  19  20
ENDBRANCH   4  19
BRANCH   1  25
ATOM     25  C01 MOL     1       3.283  10.365  -0.508  1.00  0.00    -0.066 C 
ATOM     26  C00 MOL     1       3.610   9.663   0.897  1.00  0.00    -0.126 C 
ENDBRANCH   1  25
BRANCH   2  27
ATOM     27  C04 MOL     1       0.284  11.068  -0.030  1.00  0.00    -0.266 C 
BRANCH  27  28
ATOM     28  C05 MOL     1       0.089  10.619   1.397  1.00  0.00     0.870 C 
ATOM     29  O06 MOL     1       0.011   9.457   1.745  1.00  0.00    -0.820 OA
ATOM     30  O07 MOL     1       0.083  11.519   2.304  1.00  0.00    -0.676 OA
ENDBRANCH  27  28
ENDBRANCH   2  27
TORSDOF 9
ENDMDL
MODEL 13
REMARK VINA RESULT:      -5.5      3.905      6.280
REMARK  9 active torsions:
REMARK  status: ('A' for Active; 'I' for Inactive)
REMARK    1  A    between atoms: C01_2  and  C02_3 
REMARK    2  A    between atoms: C03_4  and  C04_5 
REMARK    3  A    between atoms: C04_5  and  C05_6 
REMARK    4  A    between atoms: C09_10  and  C0A_11 
REMARK    5  A    between atoms: C0A_11  and  C0B_12 
REMARK       I    between atoms: C0B_12  and  N0C_13 
REMARK    6  A    between atoms: C0E_15  and  C0F_16 
REMARK    7  A    between atoms: C0F_16  and  C0G_17 
REMARK    8  A    between atoms: C0N_23  and  C0O_24 
REMARK    9  A    between atoms: C0O_24  and  N0P_25 
ROOT
ATOM      1  C02 MOL     1       1.027  10.994  -3.421  1.00  0.00    -0.044 C 
ATOM      2  C03 MOL     1      -0.211  11.029  -2.765  1.00  0.00     0.129 C 
ATOM      3  C08 MOL     1      -0.328  11.104  -1.319  1.00  0.00    -0.316 C 
ATOM      4  C09 MOL     1       0.826  11.286  -0.580  1.00  0.00     0.109 C 
ATOM      5  C0E MOL     1       2.065  11.192  -1.145  1.00  0.00    -0.064 C 
ATOM      6  C0N MOL     1       2.171  11.153  -2.556  1.00  0.00    -0.120 C 
ENDROOT
BRANCH   5   7
ATOM      7  C0F MOL     1       3.291  11.287  -0.251  1.00  0.00     0.047 C 
BRANCH   7   8
ATOM      8  C0G MOL     1       3.892  10.034   0.327  1.00  0.00     0.171 C 
ATOM      9  C0M MOL     1       3.902   9.796   1.716  1.00  0.00    -0.195 C 
ATOM     10  C0K MOL     1       4.487   8.618   2.251  1.00  0.00    -0.062 C 
ATOM     11  C0J MOL     1       5.229   7.740   1.456  1.00  0.00    -0.135 C 
ATOM     12  C0I MOL     1       5.229   8.027   0.057  1.00  0.00    -0.071 C 
ATOM     13  C0H MOL     1       4.535   9.111  -0.437  1.00  0.00    -0.152 C 
ENDBRANCH   7   8
ENDBRANCH   5   7
BRANCH   6  14
ATOM     14  C0O MOL     1       3.567  11.125  -3.259  1.00  0.00     0.092 C 
BRANCH  14  15
ATOM     15  N0P MOL     1       4.201  12.451  -3.547  1.00  0.00    -0.153 N 
ATOM     16  H0Q MOL     1       5.145  12.476  -3.197  1.00  0.00     0.257 HD
ATOM     17  H0R MOL     1       4.319  12.521  -4.553  1.00  0.00     0.244 HD
ATOM     18  H0S MOL     1       3.718  13.250  -3.160  1.00  0.00     0.246 HD
ENDBRANCH  14  15
ENDBRANCH   6  14
BRANCH   4  19
ATOM     19  C0A MOL     1       0.621  11.659   0.906  1.00  0.00    -0.219 C 
BRANCH  19  20
ATOM     20  C0B MOL     1       0.103  10.497   1.816  1.00  0.00     0.819 C 
ATOM     21  N0C MOL     1      -0.543  10.831   2.891  1.00  0.00    -0.993 N 
ATOM     22  H13 MOL     1      -0.699  11.826   3.028  1.00  0.00     0.395 HD
ATOM     23  H14 MOL     1      -0.826  10.132   3.554  1.00  0.00     0.440 HD
ATOM     24  O0D MOL     1       0.230   9.336   1.473  1.00  0.00    -0.614 OA
ENDBRANCH  19  20
ENDBRANCH   4  19
BRANCH   1  25
ATOM     25  C01 MOL     1       1.172  10.864  -4.953  1.00  0.00    -0.066 C 
ATOM     26  C00 MOL     1       1.153   9.333  -5.432  1.00  0.00    -0.126 C 
ENDBRANCH   1  25
BRANCH   2  27
ATOM     27  C04 MOL     1      -1.554  10.882  -3.442  1.00  0.00    -0.266 C 
BRANCH  27  28
ATOM     28  C05 MOL     1      -2.053   9.465  -3.583  1.00  0.00     0.870 C 
ATOM     29  O06 MOL     1      -1.722   8.548  -2.857  1.00  0.00    -0.820 OA
ATOM     30  O07 MOL     1      -2.939   9.235  -4.474  1.00  0.00    -0.676 OA
ENDBRANCH  27  28
ENDBRANCH   2  27
TORSDOF 9
ENDMDL
MODEL 14
REMARK VINA RESULT:      -5.5     15.545     17.717
REMARK  9 active torsions:
REMARK  status: ('A' for Active; 'I' for Inactive)
REMARK    1  A    between atoms: C01_2  and  C02_3 
REMARK    2  A    between atoms: C03_4  and  C04_5 
REMARK    3  A    between atoms: C04_5  and  C05_6 
REMARK    4  A    between atoms: C09_10  and  C0A_11 
REMARK    5  A    between atoms: C0A_11  and  C0B_12 
REMARK       I    between atoms: C0B_12  and  N0C_13 
REMARK    6  A    between atoms: C0E_15  and  C0F_16 
REMARK    7  A    between atoms: C0F_16  and  C0G_17 
REMARK    8  A    between atoms: C0N_23  and  C0O_24 
REMARK    9  A    between atoms: C0O_24  and  N0P_25 
ROOT
ATOM      1  C02 MOL     1      -3.439   8.554 -22.062  1.00  0.00    -0.044 C 
ATOM      2  C03 MOL     1      -3.929   7.685 -21.077  1.00  0.00     0.129 C 
ATOM      3  C08 MOL     1      -3.077   6.744 -20.371  1.00  0.00    -0.316 C 
ATOM      4  C09 MOL     1      -1.713   6.810 -20.586  1.00  0.00     0.109 C 
ATOM      5  C0E MOL     1      -1.178   7.581 -21.577  1.00  0.00    -0.064 C 
ATOM      6  C0N MOL     1      -2.007   8.518 -22.237  1.00  0.00    -0.120 C 
ENDROOT
BRANCH   5   7
ATOM      7  C0F MOL     1       0.320   7.515 -21.832  1.00  0.00     0.047 C 
BRANCH   7   8
ATOM      8  C0G MOL     1       0.865   6.523 -22.823  1.00  0.00     0.171 C 
ATOM      9  C0M MOL     1       0.973   6.836 -24.194  1.00  0.00    -0.195 C 
ATOM     10  C0K MOL     1       1.472   5.885 -25.122  1.00  0.00    -0.062 C 
ATOM     11  C0J MOL     1       1.705   4.555 -24.759  1.00  0.00    -0.135 C 
ATOM     12  C0I MOL     1       1.552   4.261 -23.371  1.00  0.00    -0.071 C 
ATOM     13  C0H MOL     1       1.193   5.249 -22.479  1.00  0.00    -0.152 C 
ENDBRANCH   7   8
ENDBRANCH   5   7
BRANCH   6  14
ATOM     14  C0O MOL     1      -1.429   9.481 -23.325  1.00  0.00     0.092 C 
BRANCH  14  15
ATOM     15  N0P MOL     1      -0.909  10.802 -22.844  1.00  0.00    -0.153 N 
ATOM     16  H0Q MOL     1      -0.459  11.299 -23.595  1.00  0.00     0.257 HD
ATOM     17  H0R MOL     1      -1.712  11.383 -22.622  1.00  0.00     0.244 HD
ATOM     18  H0S MOL     1      -0.248  10.751 -22.082  1.00  0.00     0.246 HD
ENDBRANCH  14  15
ENDBRANCH   6  14
BRANCH   4  19
ATOM     19  C0A MOL     1      -0.837   6.005 -19.599  1.00  0.00    -0.219 C 
BRANCH  19  20
ATOM     20  C0B MOL     1      -0.499   6.740 -18.260  1.00  0.00     0.819 C 
ATOM     21  N0C MOL     1      -0.542   6.036 -17.171  1.00  0.00    -0.993 N 
ATOM     22  H13 MOL     1      -0.748   5.047 -17.287  1.00  0.00     0.395 HD
ATOM     23  H14 MOL     1      -0.417   6.473 -16.276  1.00  0.00     0.440 HD
ATOM     24  O0D MOL     1      -0.127   7.900 -18.265  1.00  0.00    -0.614 OA
ENDBRANCH  19  20
ENDBRANCH   4  19
BRANCH   1  25
ATOM     25  C01 MOL     1      -4.337   9.525 -22.859  1.00  0.00    -0.066 C 
ATOM     26  C00 MOL     1      -5.014   8.816 -24.129  1.00  0.00    -0.126 C 
ENDBRANCH   1  25
BRANCH   2  27
ATOM     27  C04 MOL     1      -5.386   7.530 -20.707  1.00  0.00    -0.266 C 
BRANCH  27  28
ATOM     28  C05 MOL     1      -5.785   8.144 -19.388  1.00  0.00     0.870 C 
ATOM     29  O06 MOL     1      -6.389   7.555 -18.513  1.00  0.00    -0.820 OA
ATOM     30  O07 MOL     1      -5.391   9.336 -19.147  1.00  0.00    -0.676 OA
ENDBRANCH  27  28
ENDBRANCH   2  27
TORSDOF 9
ENDMDL
MODEL 15
REMARK VINA RESULT:      -5.4     16.919     18.402
REMARK  9 active torsions:
REMARK  status: ('A' for Active; 'I' for Inactive)
REMARK    1  A    between atoms: C01_2  and  C02_3 
REMARK    2  A    between atoms: C03_4  and  C04_5 
REMARK    3  A    between atoms: C04_5  and  C05_6 
REMARK    4  A    between atoms: C09_10  and  C0A_11 
REMARK    5  A    between atoms: C0A_11  and  C0B_12 
REMARK       I    between atoms: C0B_12  and  N0C_13 
REMARK    6  A    between atoms: C0E_15  and  C0F_16 
REMARK    7  A    between atoms: C0F_16  and  C0G_17 
REMARK    8  A    between atoms: C0N_23  and  C0O_24 
REMARK    9  A    between atoms: C0O_24  and  N0P_25 
ROOT
ATOM      1  C02 MOL     1      -5.356   8.674 -23.928  1.00  0.00    -0.044 C 
ATOM      2  C03 MOL     1      -6.337   7.835 -23.382  1.00  0.00     0.129 C 
ATOM      3  C08 MOL     1      -6.230   7.272 -22.047  1.00  0.00    -0.316 C 
ATOM      4  C09 MOL     1      -5.188   7.694 -21.244  1.00  0.00     0.109 C 
ATOM      5  C0E MOL     1      -4.163   8.452 -21.732  1.00  0.00    -0.064 C 
ATOM      6  C0N MOL     1      -4.291   9.024 -23.021  1.00  0.00    -0.120 C 
ENDROOT
BRANCH   5   7
ATOM      7  C0F MOL     1      -2.992   8.781 -20.821  1.00  0.00     0.047 C 
BRANCH   7   8
ATOM      8  C0G MOL     1      -1.868   7.793 -20.664  1.00  0.00     0.171 C 
ATOM      9  C0M MOL     1      -1.578   7.199 -19.418  1.00  0.00    -0.195 C 
ATOM     10  C0K MOL     1      -0.505   6.282 -19.279  1.00  0.00    -0.062 C 
ATOM     11  C0J MOL     1       0.414   6.063 -20.309  1.00  0.00    -0.135 C 
ATOM     12  C0I MOL     1       0.114   6.706 -21.548  1.00  0.00    -0.071 C 
ATOM     13  C0H MOL     1      -1.016   7.486 -21.678  1.00  0.00    -0.152 C 
ENDBRANCH   7   8
ENDBRANCH   5   7
BRANCH   6  14
ATOM     14  C0O MOL     1      -3.184   9.965 -23.598  1.00  0.00     0.092 C 
BRANCH  14  15
ATOM     15  N0P MOL     1      -2.098   9.312 -24.397  1.00  0.00    -0.153 N 
ATOM     16  H0Q MOL     1      -2.453   8.998 -25.285  1.00  0.00     0.257 HD
ATOM     17  H0R MOL     1      -1.430  10.034 -24.651  1.00  0.00     0.244 HD
ATOM     18  H0S MOL     1      -1.657   8.518 -23.954  1.00  0.00     0.246 HD
ENDBRANCH  14  15
ENDBRANCH   6  14
BRANCH   4  19
ATOM     19  C0A MOL     1      -5.288   7.303 -19.751  1.00  0.00    -0.219 C 
BRANCH  19  20
ATOM     20  C0B MOL     1      -6.030   8.337 -18.843  1.00  0.00     0.819 C 
ATOM     21  N0C MOL     1      -6.875   7.867 -17.977  1.00  0.00    -0.993 N 
ATOM     22  H13 MOL     1      -6.948   6.853 -17.931  1.00  0.00     0.395 HD
ATOM     23  H14 MOL     1      -7.440   8.487 -17.427  1.00  0.00     0.440 HD
ATOM     24  O0D MOL     1      -5.752   9.522 -18.896  1.00  0.00    -0.614 OA
ENDBRANCH  19  20
ENDBRANCH   4  19
BRANCH   1  25
ATOM     25  C01 MOL     1      -5.429   9.241 -25.363  1.00  0.00    -0.066 C 
ATOM     26  C00 MOL     1      -4.888   8.196 -26.453  1.00  0.00    -0.126 C 
ENDBRANCH   1  25
BRANCH   2  27
ATOM     27  C04 MOL     1      -7.550   7.322 -24.126  1.00  0.00    -0.266 C 
BRANCH  27  28
ATOM     28  C05 MOL     1      -8.468   8.386 -24.673  1.00  0.00     0.870 C 
ATOM     29  O06 MOL     1      -8.759   8.501 -25.848  1.00  0.00    -0.820 OA
ATOM     30  O07 MOL     1      -9.034   9.167 -23.836  1.00  0.00    -0.676 OA
ENDBRANCH  27  28
ENDBRANCH   2  27
TORSDOF 9
ENDMDL
MODEL 16
REMARK VINA RESULT:      -5.4     12.890     15.160
REMARK  9 active torsions:
REMARK  status: ('A' for Active; 'I' for Inactive)
REMARK    1  A    between atoms: C01_2  and  C02_3 
REMARK    2  A    between atoms: C03_4  and  C04_5 
REMARK    3  A    between atoms: C04_5  and  C05_6 
REMARK    4  A    between atoms: C09_10  and  C0A_11 
REMARK    5  A    between atoms: C0A_11  and  C0B_12 
REMARK       I    between atoms: C0B_12  and  N0C_13 
REMARK    6  A    between atoms: C0E_15  and  C0F_16 
REMARK    7  A    between atoms: C0F_16  and  C0G_17 
REMARK    8  A    between atoms: C0N_23  and  C0O_24 
REMARK    9  A    between atoms: C0O_24  and  N0P_25 
ROOT
ATOM      1  C02 MOL     1       0.641   7.409 -17.095  1.00  0.00    -0.044 C 
ATOM      2  C03 MOL     1       1.092   8.736 -17.069  1.00  0.00     0.129 C 
ATOM      3  C08 MOL     1       0.923   9.642 -18.191  1.00  0.00    -0.316 C 
ATOM      4  C09 MOL     1       0.166   9.214 -19.266  1.00  0.00     0.109 C 
ATOM      5  C0E MOL     1      -0.243   7.918 -19.388  1.00  0.00    -0.064 C 
ATOM      6  C0N MOL     1      -0.104   7.051 -18.278  1.00  0.00    -0.120 C 
ENDROOT
BRANCH   5   7
ATOM      7  C0F MOL     1      -0.971   7.491 -20.653  1.00  0.00     0.047 C 
BRANCH   7   8
ATOM      8  C0G MOL     1      -2.474   7.433 -20.664  1.00  0.00     0.171 C 
ATOM      9  C0M MOL     1      -3.257   8.583 -20.436  1.00  0.00    -0.195 C 
ATOM     10  C0K MOL     1      -4.674   8.512 -20.431  1.00  0.00    -0.062 C 
ATOM     11  C0J MOL     1      -5.350   7.289 -20.472  1.00  0.00    -0.135 C 
ATOM     12  C0I MOL     1      -4.527   6.139 -20.668  1.00  0.00    -0.071 C 
ATOM     13  C0H MOL     1      -3.160   6.267 -20.800  1.00  0.00    -0.152 C 
ENDBRANCH   7   8
ENDBRANCH   5   7
BRANCH   6  14
ATOM     14  C0O MOL     1      -0.627   5.578 -18.334  1.00  0.00     0.092 C 
BRANCH  14  15
ATOM     15  N0P MOL     1      -2.007   5.335 -17.804  1.00  0.00    -0.153 N 
ATOM     16  H0Q MOL     1      -2.538   6.191 -17.795  1.00  0.00     0.257 HD
ATOM     17  H0R MOL     1      -2.496   4.759 -18.482  1.00  0.00     0.244 HD
ATOM     18  H0S MOL     1      -2.046   4.949 -16.871  1.00  0.00     0.246 HD
ENDBRANCH  14  15
ENDBRANCH   6  14
BRANCH   4  19
ATOM     19  C0A MOL     1      -0.233  10.307 -20.285  1.00  0.00    -0.219 C 
BRANCH  19  20
ATOM     20  C0B MOL     1       0.942  11.210 -20.784  1.00  0.00     0.819 C 
ATOM     21  N0C MOL     1       0.959  12.440 -20.372  1.00  0.00    -0.993 N 
ATOM     22  H13 MOL     1       0.227  12.702 -19.716  1.00  0.00     0.395 HD
ATOM     23  H14 MOL     1       1.640  13.087 -20.725  1.00  0.00     0.440 HD
ATOM     24  O0D MOL     1       1.842  10.742 -21.458  1.00  0.00    -0.614 OA
ENDBRANCH  19  20
ENDBRANCH   4  19
BRANCH   1  25
ATOM     25  C01 MOL     1       0.857   6.417 -15.932  1.00  0.00    -0.066 C 
ATOM     26  C00 MOL     1       2.282   5.685 -16.020  1.00  0.00    -0.126 C 
ENDBRANCH   1  25
BRANCH   2  27
ATOM     27  C04 MOL     1       1.896   9.355 -15.948  1.00  0.00    -0.266 C 
BRANCH  27  28
ATOM     28  C05 MOL     1       3.352   9.599 -16.258  1.00  0.00     0.870 C 
ATOM     29  O06 MOL     1       4.108   8.758 -16.704  1.00  0.00    -0.820 OA
ATOM     30  O07 MOL     1       3.796  10.788 -16.114  1.00  0.00    -0.676 OA
ENDBRANCH  27  28
ENDBRANCH   2  27
TORSDOF 9
ENDMDL
MODEL 17
REMARK VINA RESULT:      -5.3      3.407      6.591
REMARK  9 active torsions:
REMARK  status: ('A' for Active; 'I' for Inactive)
REMARK    1  A    between atoms: C01_2  and  C02_3 
REMARK    2  A    between atoms: C03_4  and  C04_5 
REMARK    3  A    between atoms: C04_5  and  C05_6 
REMARK    4  A    between atoms: C09_10  and  C0A_11 
REMARK    5  A    between atoms: C0A_11  and  C0B_12 
REMARK       I    between atoms: C0B_12  and  N0C_13 
REMARK    6  A    between atoms: C0E_15  and  C0F_16 
REMARK    7  A    between atoms: C0F_16  and  C0G_17 
REMARK    8  A    between atoms: C0N_23  and  C0O_24 
REMARK    9  A    between atoms: C0O_24  and  N0P_25 
ROOT
ATOM      1  C02 MOL     1       2.275  10.506  -0.555  1.00  0.00    -0.044 C 
ATOM      2  C03 MOL     1       0.954  10.630  -0.105  1.00  0.00     0.129 C 
ATOM      3  C08 MOL     1      -0.191  10.353  -0.955  1.00  0.00    -0.316 C 
ATOM      4  C09 MOL     1       0.042   9.815  -2.207  1.00  0.00     0.109 C 
ATOM      5  C0E MOL     1       1.299   9.734  -2.733  1.00  0.00    -0.064 C 
ATOM      6  C0N MOL     1       2.409   9.973  -1.889  1.00  0.00    -0.120 C 
ENDROOT
BRANCH   5   7
ATOM      7  C0F MOL     1       1.469   9.241  -4.161  1.00  0.00     0.047 C 
BRANCH   7   8
ATOM      8  C0G MOL     1       1.350   7.771  -4.462  1.00  0.00     0.171 C 
ATOM      9  C0M MOL     1       0.673   7.306  -5.608  1.00  0.00    -0.195 C 
ATOM     10  C0K MOL     1       0.553   5.917  -5.871  1.00  0.00    -0.062 C 
ATOM     11  C0J MOL     1       0.935   4.955  -4.932  1.00  0.00    -0.135 C 
ATOM     12  C0I MOL     1       1.585   5.458  -3.766  1.00  0.00    -0.071 C 
ATOM     13  C0H MOL     1       1.801   6.811  -3.611  1.00  0.00    -0.152 C 
ENDBRANCH   7   8
ENDBRANCH   5   7
BRANCH   6  14
ATOM     14  C0O MOL     1       3.873   9.817  -2.417  1.00  0.00     0.092 C 
BRANCH  14  15
ATOM     15  N0P MOL     1       4.538   8.497  -2.170  1.00  0.00    -0.153 N 
ATOM     16  H0Q MOL     1       3.855   7.797  -1.931  1.00  0.00     0.257 HD
ATOM     17  H0R MOL     1       4.911   8.173  -3.057  1.00  0.00     0.244 HD
ATOM     18  H0S MOL     1       5.234   8.499  -1.438  1.00  0.00     0.246 HD
ENDBRANCH  14  15
ENDBRANCH   6  14
BRANCH   4  19
ATOM     19  C0A MOL     1      -1.200   9.263  -2.944  1.00  0.00    -0.219 C 
BRANCH  19  20
ATOM     20  C0B MOL     1      -1.923  10.283  -3.883  1.00  0.00     0.819 C 
ATOM     21  N0C MOL     1      -2.866   9.822  -4.645  1.00  0.00    -0.993 N 
ATOM     22  H13 MOL     1      -3.089   8.836  -4.531  1.00  0.00     0.395 HD
ATOM     23  H14 MOL     1      -3.306  10.412  -5.327  1.00  0.00     0.440 HD
ATOM     24  O0D MOL     1      -1.661  11.471  -3.828  1.00  0.00    -0.614 OA
ENDBRANCH  19  20
ENDBRANCH   4  19
BRANCH   1  25
ATOM     25  C01 MOL     1       3.503  10.845   0.318  1.00  0.00    -0.066 C 
ATOM     26  C00 MOL     1       3.879   9.650   1.321  1.00  0.00    -0.126 C 
ENDBRANCH   1  25
BRANCH   2  27
ATOM     27  C04 MOL     1       0.547  11.164   1.249  1.00  0.00    -0.266 C 
BRANCH  27  28
ATOM     28  C05 MOL     1       0.010  10.136   2.214  1.00  0.00     0.870 C 
ATOM     29  O06 MOL     1       0.428   8.998   2.303  1.00  0.00    -0.820 OA
ATOM     30  O07 MOL     1      -0.887  10.512   3.041  1.00  0.00    -0.676 OA
ENDBRANCH  27  28
ENDBRANCH   2  27
TORSDOF 9
ENDMDL
MODEL 18
REMARK VINA RESULT:      -5.2     16.374     18.359
REMARK  9 active torsions:
REMARK  status: ('A' for Active; 'I' for Inactive)
REMARK    1  A    between atoms: C01_2  and  C02_3 
REMARK    2  A    between atoms: C03_4  and  C04_5 
REMARK    3  A    between atoms: C04_5  and  C05_6 
REMARK    4  A    between atoms: C09_10  and  C0A_11 
REMARK    5  A    between atoms: C0A_11  and  C0B_12 
REMARK       I    between atoms: C0B_12  and  N0C_13 
REMARK    6  A    between atoms: C0E_15  and  C0F_16 
REMARK    7  A    between atoms: C0F_16  and  C0G_17 
REMARK    8  A    between atoms: C0N_23  and  C0O_24 
REMARK    9  A    between atoms: C0O_24  and  N0P_25 
ROOT
ATOM      1  C02 MOL     1      -5.234   8.153 -21.827  1.00  0.00    -0.044 C 
ATOM      2  C03 MOL     1      -4.753   7.850 -20.546  1.00  0.00     0.129 C 
ATOM      3  C08 MOL     1      -3.361   8.029 -20.171  1.00  0.00    -0.316 C 
ATOM      4  C09 MOL     1      -2.518   8.651 -21.072  1.00  0.00     0.109 C 
ATOM      5  C0E MOL     1      -2.901   8.908 -22.356  1.00  0.00    -0.064 C 
ATOM      6  C0N MOL     1      -4.265   8.762 -22.705  1.00  0.00    -0.120 C 
ENDROOT
BRANCH   5   7
ATOM      7  C0F MOL     1      -1.883   9.487 -23.326  1.00  0.00     0.047 C 
BRANCH   7   8
ATOM      8  C0G MOL     1      -1.099   8.566 -24.222  1.00  0.00     0.171 C 
ATOM      9  C0M MOL     1       0.084   7.939 -23.779  1.00  0.00    -0.195 C 
ATOM     10  C0K MOL     1       0.824   7.087 -24.639  1.00  0.00    -0.062 C 
ATOM     11  C0J MOL     1       0.522   6.973 -25.999  1.00  0.00    -0.135 C 
ATOM     12  C0I MOL     1      -0.661   7.648 -26.425  1.00  0.00    -0.071 C 
ATOM     13  C0H MOL     1      -1.426   8.359 -25.525  1.00  0.00    -0.152 C 
ENDBRANCH   7   8
ENDBRANCH   5   7
BRANCH   6  14
ATOM     14  C0O MOL     1      -4.773   9.119 -24.140  1.00  0.00     0.092 C 
BRANCH  14  15
ATOM     15  N0P MOL     1      -5.263  10.519 -24.350  1.00  0.00    -0.153 N 
ATOM     16  H0Q MOL     1      -5.553  10.927 -23.476  1.00  0.00     0.257 HD
ATOM     17  H0R MOL     1      -4.464  11.084 -24.622  1.00  0.00     0.244 HD
ATOM     18  H0S MOL     1      -6.036  10.610 -24.994  1.00  0.00     0.246 HD
ENDBRANCH  14  15
ENDBRANCH   6  14
BRANCH   4  19
ATOM     19  C0A MOL     1      -1.142   9.085 -20.516  1.00  0.00    -0.219 C 
BRANCH  19  20
ATOM     20  C0B MOL     1      -0.363   7.978 -19.733  1.00  0.00     0.819 C 
ATOM     21  N0C MOL     1      -0.176   8.172 -18.463  1.00  0.00    -0.993 N 
ATOM     22  H13 MOL     1      -0.597   9.012 -18.073  1.00  0.00     0.395 HD
ATOM     23  H14 MOL     1       0.388   7.538 -17.928  1.00  0.00     0.440 HD
ATOM     24  O0D MOL     1      -0.030   6.945 -20.284  1.00  0.00    -0.614 OA
ENDBRANCH  19  20
ENDBRANCH   4  19
BRANCH   1  25
ATOM     25  C01 MOL     1      -6.699   7.922 -22.259  1.00  0.00    -0.066 C 
ATOM     26  C00 MOL     1      -6.933   6.439 -22.825  1.00  0.00    -0.126 C 
ENDBRANCH   1  25
BRANCH   2  27
ATOM     27  C04 MOL     1      -5.565   7.205 -19.446  1.00  0.00    -0.266 C 
BRANCH  27  28
ATOM     28  C05 MOL     1      -6.210   8.162 -18.475  1.00  0.00     0.870 C 
ATOM     29  O06 MOL     1      -6.247   9.368 -18.625  1.00  0.00    -0.820 OA
ATOM     30  O07 MOL     1      -6.824   7.663 -17.472  1.00  0.00    -0.676 OA
ENDBRANCH  27  28
ENDBRANCH   2  27
TORSDOF 9
ENDMDL
MODEL 19
REMARK VINA RESULT:      -5.1      3.491      5.251
REMARK  9 active torsions:
REMARK  status: ('A' for Active; 'I' for Inactive)
REMARK    1  A    between atoms: C01_2  and  C02_3 
REMARK    2  A    between atoms: C03_4  and  C04_5 
REMARK    3  A    between atoms: C04_5  and  C05_6 
REMARK    4  A    between atoms: C09_10  and  C0A_11 
REMARK    5  A    between atoms: C0A_11  and  C0B_12 
REMARK       I    between atoms: C0B_12  and  N0C_13 
REMARK    6  A    between atoms: C0E_15  and  C0F_16 
REMARK    7  A    between atoms: C0F_16  and  C0G_17 
REMARK    8  A    between atoms: C0N_23  and  C0O_24 
REMARK    9  A    between atoms: C0O_24  and  N0P_25 
ROOT
ATOM      1  C02 MOL     1      -0.076   8.123  -3.369  1.00  0.00    -0.044 C 
ATOM      2  C03 MOL     1       1.250   7.683  -3.488  1.00  0.00     0.129 C 
ATOM      3  C08 MOL     1       2.381   8.481  -3.046  1.00  0.00    -0.316 C 
ATOM      4  C09 MOL     1       2.124   9.652  -2.359  1.00  0.00     0.109 C 
ATOM      5  C0E MOL     1       0.865  10.172  -2.269  1.00  0.00    -0.064 C 
ATOM      6  C0N MOL     1      -0.234   9.376  -2.671  1.00  0.00    -0.120 C 
ENDROOT
BRANCH   5   7
ATOM      7  C0F MOL     1       0.674  11.524  -1.600  1.00  0.00     0.047 C 
BRANCH   7   8
ATOM      8  C0G MOL     1       0.354  11.590  -0.131  1.00  0.00     0.171 C 
ATOM      9  C0M MOL     1       0.356  12.814   0.569  1.00  0.00    -0.195 C 
ATOM     10  C0K MOL     1       0.070  12.861   1.958  1.00  0.00    -0.062 C 
ATOM     11  C0J MOL     1      -0.048  11.699   2.724  1.00  0.00    -0.135 C 
ATOM     12  C0I MOL     1      -0.011  10.474   1.993  1.00  0.00    -0.071 C 
ATOM     13  C0H MOL     1       0.137  10.479   0.622  1.00  0.00    -0.152 C 
ENDBRANCH   7   8
ENDBRANCH   5   7
BRANCH   6  14
ATOM     14  C0O MOL     1      -1.702   9.890  -2.516  1.00  0.00     0.092 C 
BRANCH  14  15
ATOM     15  N0P MOL     1      -2.211  10.803  -3.588  1.00  0.00    -0.153 N 
ATOM     16  H0Q MOL     1      -1.915  10.482  -4.496  1.00  0.00     0.257 HD
ATOM     17  H0R MOL     1      -3.221  10.704  -3.619  1.00  0.00     0.244 HD
ATOM     18  H0S MOL     1      -1.921  11.767  -3.504  1.00  0.00     0.246 HD
ENDBRANCH  14  15
ENDBRANCH   6  14
BRANCH   4  19
ATOM     19  C0A MOL     1       3.339  10.300  -1.656  1.00  0.00    -0.219 C 
BRANCH  19  20
ATOM     20  C0B MOL     1       3.725   9.666  -0.280  1.00  0.00     0.819 C 
ATOM     21  N0C MOL     1       4.333   8.520  -0.305  1.00  0.00    -0.993 N 
ATOM     22  H13 MOL     1       4.551   8.151  -1.228  1.00  0.00     0.395 HD
ATOM     23  H14 MOL     1       4.529   8.027   0.546  1.00  0.00     0.440 HD
ATOM     24  O0D MOL     1       3.535  10.273   0.759  1.00  0.00    -0.614 OA
ENDBRANCH  19  20
ENDBRANCH   4  19
BRANCH   1  25
ATOM     25  C01 MOL     1      -1.287   7.312  -3.878  1.00  0.00    -0.066 C 
ATOM     26  C00 MOL     1      -1.578   6.025  -2.966  1.00  0.00    -0.126 C 
ENDBRANCH   1  25
BRANCH   2  27
ATOM     27  C04 MOL     1       1.681   6.409  -4.177  1.00  0.00    -0.266 C 
BRANCH  27  28
ATOM     28  C05 MOL     1       1.980   6.542  -5.650  1.00  0.00     0.870 C 
ATOM     29  O06 MOL     1       1.185   6.944  -6.476  1.00  0.00    -0.820 OA
ATOM     30  O07 MOL     1       3.171   6.288  -6.037  1.00  0.00    -0.676 OA
ENDBRANCH  27  28
ENDBRANCH   2  27
TORSDOF 9
ENDMDL
MODEL 20
REMARK VINA RESULT:      -5.1     16.151     18.018
REMARK  9 active torsions:
REMARK  status: ('A' for Active; 'I' for Inactive)
REMARK    1  A    between atoms: C01_2  and  C02_3 
REMARK    2  A    between atoms: C03_4  and  C04_5 
REMARK    3  A    between atoms: C04_5  and  C05_6 
REMARK    4  A    between atoms: C09_10  and  C0A_11 
REMARK    5  A    between atoms: C0A_11  and  C0B_12 
REMARK       I    between atoms: C0B_12  and  N0C_13 
REMARK    6  A    between atoms: C0E_15  and  C0F_16 
REMARK    7  A    between atoms: C0F_16  and  C0G_17 
REMARK    8  A    between atoms: C0N_23  and  C0O_24 
REMARK    9  A    between atoms: C0O_24  and  N0P_25 
ROOT
ATOM      1  C02 MOL     1      -1.612   6.774 -20.534  1.00  0.00    -0.044 C 
ATOM      2  C03 MOL     1      -0.555   7.150 -21.373  1.00  0.00     0.129 C 
ATOM      3  C08 MOL     1      -0.703   8.147 -22.419  1.00  0.00    -0.316 C 
ATOM      4  C09 MOL     1      -1.895   8.844 -22.491  1.00  0.00     0.109 C 
ATOM      5  C0E MOL     1      -2.985   8.483 -21.754  1.00  0.00    -0.064 C 
ATOM      6  C0N MOL     1      -2.825   7.535 -20.716  1.00  0.00    -0.120 C 
ENDROOT
BRANCH   5   7
ATOM      7  C0F MOL     1      -4.298   9.220 -21.971  1.00  0.00     0.047 C 
BRANCH   7   8
ATOM      8  C0G MOL     1      -5.305   8.678 -22.948  1.00  0.00     0.171 C 
ATOM      9  C0M MOL     1      -6.323   7.792 -22.540  1.00  0.00    -0.195 C 
ATOM     10  C0K MOL     1      -7.257   7.273 -23.474  1.00  0.00    -0.062 C 
ATOM     11  C0J MOL     1      -7.106   7.468 -24.850  1.00  0.00    -0.135 C 
ATOM     12  C0I MOL     1      -6.045   8.341 -25.235  1.00  0.00    -0.071 C 
ATOM     13  C0H MOL     1      -5.240   8.931 -24.283  1.00  0.00    -0.152 C 
ENDBRANCH   7   8
ENDBRANCH   5   7
BRANCH   6  14
ATOM     14  C0O MOL     1      -4.021   7.143 -19.789  1.00  0.00     0.092 C 
BRANCH  14  15
ATOM     15  N0P MOL     1      -4.728   5.862 -20.110  1.00  0.00    -0.153 N 
ATOM     16  H0Q MOL     1      -4.276   5.391 -20.876  1.00  0.00     0.257 HD
ATOM     17  H0R MOL     1      -4.586   5.231 -19.327  1.00  0.00     0.244 HD
ATOM     18  H0S MOL     1      -5.704   5.960 -20.354  1.00  0.00     0.246 HD
ENDBRANCH  14  15
ENDBRANCH   6  14
BRANCH   4  19
ATOM     19  C0A MOL     1      -1.894  10.085 -23.412  1.00  0.00    -0.219 C 
BRANCH  19  20
ATOM     20  C0B MOL     1      -1.560  11.438 -22.702  1.00  0.00     0.819 C 
ATOM     21  N0C MOL     1      -2.410  12.408 -22.847  1.00  0.00    -0.993 N 
ATOM     22  H13 MOL     1      -3.251  12.190 -23.375  1.00  0.00     0.395 HD
ATOM     23  H14 MOL     1      -2.207  13.322 -22.484  1.00  0.00     0.440 HD
ATOM     24  O0D MOL     1      -0.586  11.535 -21.978  1.00  0.00    -0.614 OA
ENDBRANCH  19  20
ENDBRANCH   4  19
BRANCH   1  25
ATOM     25  C01 MOL     1      -1.487   5.680 -19.451  1.00  0.00    -0.066 C 
ATOM     26  C00 MOL     1      -0.836   6.243 -18.097  1.00  0.00    -0.126 C 
ENDBRANCH   1  25
BRANCH   2  27
ATOM     27  C04 MOL     1       0.814   6.508 -21.383  1.00  0.00    -0.266 C 
BRANCH  27  28
ATOM     28  C05 MOL     1       1.814   7.108 -20.428  1.00  0.00     0.870 C 
ATOM     29  O06 MOL     1       1.653   8.158 -19.837  1.00  0.00    -0.820 OA
ATOM     30  O07 MOL     1       2.863   6.427 -20.165  1.00  0.00    -0.676 OA
ENDBRANCH  27  28
ENDBRANCH   2  27
TORSDOF 9
ENDMDL
