MODEL 1
REMARK VINA RESULT:      -6.2      0.000      0.000
REMARK  9 active torsions:
REMARK  status: ('A' for Active; 'I' for Inactive)
REMARK    1  A    between atoms: C01_2  and  C02_3 
REMARK    2  A    between atoms: C03_4  and  C04_5 
REMARK    3  A    between atoms: C04_5  and  C05_6 
REMARK    4  A    between atoms: C09_10  and  C0A_11 
REMARK    5  A    between atoms: C0A_11  and  C0B_12 
REMARK       I    between atoms: C0B_12  and  N0C_13 
REMARK    6  A    between atoms: C0E_15  and  C0F_16 
REMARK    7  A    between atoms: C0F_16  and  C0G_17 
REMARK    8  A    between atoms: C0N_23  and  C0O_24 
REMARK    9  A    between atoms: C0O_24  and  N0P_25 
ROOT
ATOM      1  C02 MOL     1       1.860   7.393  -6.546  1.00  0.00    -0.044 C 
ATOM      2  C03 MOL     1       1.246   6.285  -5.946  1.00  0.00     0.129 C 
ATOM      3  C08 MOL     1       0.245   6.416  -4.901  1.00  0.00    -0.316 C 
ATOM      4  C09 MOL     1      -0.213   7.683  -4.593  1.00  0.00     0.109 C 
ATOM      5  C0E MOL     1       0.386   8.805  -5.086  1.00  0.00    -0.064 C 
ATOM      6  C0N MOL     1       1.337   8.671  -6.126  1.00  0.00    -0.120 C 
ENDROOT
BRANCH   5   7
ATOM      7  C0F MOL     1      -0.096  10.167  -4.612  1.00  0.00     0.047 C 
BRANCH   7   8
ATOM      8  C0G MOL     1       0.463  10.756  -3.345  1.00  0.00     0.171 C 
ATOM      9  C0M MOL     1      -0.380  11.194  -2.303  1.00  0.00    -0.195 C 
ATOM     10  C0K MOL     1       0.159  11.765  -1.120  1.00  0.00    -0.062 C 
ATOM     11  C0J MOL     1       1.515  12.082  -1.008  1.00  0.00    -0.135 C 
ATOM     12  C0I MOL     1       2.338  11.657  -2.095  1.00  0.00    -0.071 C 
ATOM     13  C0H MOL     1       1.791  10.986  -3.169  1.00  0.00    -0.152 C 
ENDBRANCH   7   8
ENDBRANCH   5   7
BRANCH   6  14
ATOM     14  C0O MOL     1       1.996   9.927  -6.783  1.00  0.00     0.092 C 
BRANCH  14  15
ATOM     15  N0P MOL     1       1.260  10.549  -7.930  1.00  0.00    -0.153 N 
ATOM     16  H0Q MOL     1       0.267  10.531  -7.764  1.00  0.00     0.257 HD
ATOM     17  H0R MOL     1       1.482  11.540  -7.933  1.00  0.00     0.244 HD
ATOM     18  H0S MOL     1       1.421  10.116  -8.828  1.00  0.00     0.246 HD
ENDBRANCH  14  15
ENDBRANCH   6  14
BRANCH   4  19
ATOM     19  C0A MOL     1      -1.477   7.743  -3.704  1.00  0.00    -0.219 C 
BRANCH  19  20
ATOM     20  C0B MOL     1      -2.808   7.330  -4.414  1.00  0.00     0.819 C 
ATOM     21  N0C MOL     1      -3.007   7.789  -5.611  1.00  0.00    -0.993 N 
ATOM     22  H13 MOL     1      -2.253   8.344  -6.008  1.00  0.00     0.395 HD
ATOM     23  H14 MOL     1      -3.878   7.626  -6.081  1.00  0.00     0.440 HD
ATOM     24  O0D MOL     1      -3.573   6.542  -3.889  1.00  0.00    -0.614 OA
ENDBRANCH  19  20
ENDBRANCH   4  19
BRANCH   1  25
ATOM     25  C01 MOL     1       2.962   7.273  -7.621  1.00  0.00    -0.066 C 
ATOM     26  C00 MOL     1       4.424   7.146  -6.974  1.00  0.00    -0.126 C 
ENDBRANCH   1  25
BRANCH   2  27
ATOM     27  C04 MOL     1       1.614   4.843  -6.211  1.00  0.00    -0.266 C 
BRANCH  27  28
ATOM     28  C05 MOL     1       0.907   4.202  -7.379  1.00  0.00     0.870 C 
ATOM     29  O06 MOL     1       1.327   4.205  -8.519  1.00  0.00    -0.820 OA
ATOM     30  O07 MOL     1      -0.163   3.547  -7.136  1.00  0.00    -0.676 OA
ENDBRANCH  27  28
ENDBRANCH   2  27
TORSDOF 9
ENDMDL
MODEL 2
REMARK VINA RESULT:      -5.9      3.834      7.204
REMARK  9 active torsions:
REMARK  status: ('A' for Active; 'I' for Inactive)
REMARK    1  A    between atoms: C01_2  and  C02_3 
REMARK    2  A    between atoms: C03_4  and  C04_5 
REMARK    3  A    between atoms: C04_5  and  C05_6 
REMARK    4  A    between atoms: C09_10  and  C0A_11 
REMARK    5  A    between atoms: C0A_11  and  C0B_12 
REMARK       I    between atoms: C0B_12  and  N0C_13 
REMARK    6  A    between atoms: C0E_15  and  C0F_16 
REMARK    7  A    between atoms: C0F_16  and  C0G_17 
REMARK    8  A    between atoms: C0N_23  and  C0O_24 
REMARK    9  A    between atoms: C0O_24  and  N0P_25 
ROOT
ATOM      1  C02 MOL     1       2.291  10.354  -0.733  1.00  0.00    -0.044 C 
ATOM      2  C03 MOL     1       1.101  10.971  -0.325  1.00  0.00     0.129 C 
ATOM      3  C08 MOL     1      -0.141  10.845  -1.068  1.00  0.00    -0.316 C 
ATOM      4  C09 MOL     1      -0.174   9.970  -2.137  1.00  0.00     0.109 C 
ATOM      5  C0E MOL     1       0.959   9.391  -2.630  1.00  0.00    -0.064 C 
ATOM      6  C0N MOL     1       2.158   9.492  -1.883  1.00  0.00    -0.120 C 
ENDROOT
BRANCH   5   7
ATOM      7  C0F MOL     1       0.864   8.532  -3.881  1.00  0.00     0.047 C 
BRANCH   7   8
ATOM      8  C0G MOL     1       0.524   7.072  -3.758  1.00  0.00     0.171 C 
ATOM      9  C0M MOL     1       1.475   6.069  -4.037  1.00  0.00    -0.195 C 
ATOM     10  C0K MOL     1       1.138   4.694  -3.934  1.00  0.00    -0.062 C 
ATOM     11  C0J MOL     1      -0.180   4.274  -3.733  1.00  0.00    -0.135 C 
ATOM     12  C0I MOL     1      -1.127   5.313  -3.489  1.00  0.00    -0.071 C 
ATOM     13  C0H MOL     1      -0.730   6.634  -3.466  1.00  0.00    -0.152 C 
ENDBRANCH   7   8
ENDBRANCH   5   7
BRANCH   6  14
ATOM     14  C0O MOL     1       3.467   8.782  -2.359  1.00  0.00     0.092 C 
BRANCH  14  15
ATOM     15  N0P MOL     1       3.779   7.458  -1.733  1.00  0.00    -0.153 N 
ATOM     16  H0Q MOL     1       4.758   7.396  -1.506  1.00  0.00     0.257 HD
ATOM     17  H0R MOL     1       3.324   7.436  -0.825  1.00  0.00     0.244 HD
ATOM     18  H0S MOL     1       3.551   6.652  -2.297  1.00  0.00     0.246 HD
ENDBRANCH  14  15
ENDBRANCH   6  14
BRANCH   4  19
ATOM     19  C0A MOL     1      -1.578   9.647  -2.698  1.00  0.00    -0.219 C 
BRANCH  19  20
ATOM     20  C0B MOL     1      -2.047  10.558  -3.879  1.00  0.00     0.819 C 
ATOM     21  N0C MOL     1      -3.197  10.286  -4.417  1.00  0.00    -0.993 N 
ATOM     22  H13 MOL     1      -3.721   9.526  -3.990  1.00  0.00     0.395 HD
ATOM     23  H14 MOL     1      -3.510  10.784  -5.230  1.00  0.00     0.440 HD
ATOM     24  O0D MOL     1      -1.393  11.531  -4.210  1.00  0.00    -0.614 OA
ENDBRANCH  19  20
ENDBRANCH   4  19
BRANCH   1  25
ATOM     25  C01 MOL     1       3.632  10.518   0.015  1.00  0.00    -0.066 C 
ATOM     26  C00 MOL     1       3.707   9.600   1.328  1.00  0.00    -0.126 C 
ENDBRANCH   1  25
BRANCH   2  27
ATOM     27  C04 MOL     1       0.976  11.921   0.845  1.00  0.00    -0.266 C 
BRANCH  27  28
ATOM     28  C05 MOL     1       0.840  13.378   0.481  1.00  0.00     0.870 C 
ATOM     29  O06 MOL     1      -0.206  13.996   0.505  1.00  0.00    -0.820 OA
ATOM     30  O07 MOL     1       1.909  14.021   0.204  1.00  0.00    -0.676 OA
ENDBRANCH  27  28
ENDBRANCH   2  27
TORSDOF 9
ENDMDL
MODEL 3
REMARK VINA RESULT:      -5.8      3.462      7.205
REMARK  9 active torsions:
REMARK  status: ('A' for Active; 'I' for Inactive)
REMARK    1  A    between atoms: C01_2  and  C02_3 
REMARK    2  A    between atoms: C03_4  and  C04_5 
REMARK    3  A    between atoms: C04_5  and  C05_6 
REMARK    4  A    between atoms: C09_10  and  C0A_11 
REMARK    5  A    between atoms: C0A_11  and  C0B_12 
REMARK       I    between atoms: C0B_12  and  N0C_13 
REMARK    6  A    between atoms: C0E_15  and  C0F_16 
REMARK    7  A    between atoms: C0F_16  and  C0G_17 
REMARK    8  A    between atoms: C0N_23  and  C0O_24 
REMARK    9  A    between atoms: C0O_24  and  N0P_25 
ROOT
ATOM      1  C02 MOL     1      -0.614   8.971  -2.795  1.00  0.00    -0.044 C 
ATOM      2  C03 MOL     1       0.630   9.297  -2.236  1.00  0.00     0.129 C 
ATOM      3  C08 MOL     1       1.758   8.381  -2.251  1.00  0.00    -0.316 C 
ATOM      4  C09 MOL     1       1.633   7.205  -2.966  1.00  0.00     0.109 C 
ATOM      5  C0E MOL     1       0.434   6.795  -3.474  1.00  0.00    -0.064 C 
ATOM      6  C0N MOL     1      -0.650   7.705  -3.484  1.00  0.00    -0.120 C 
ENDROOT
BRANCH   5   7
ATOM      7  C0F MOL     1       0.346   5.434  -4.147  1.00  0.00     0.047 C 
BRANCH   7   8
ATOM      8  C0G MOL     1       0.688   5.301  -5.606  1.00  0.00     0.171 C 
ATOM      9  C0M MOL     1       0.701   4.045  -6.247  1.00  0.00    -0.195 C 
ATOM     10  C0K MOL     1       1.042   3.930  -7.620  1.00  0.00    -0.062 C 
ATOM     11  C0J MOL     1       1.548   5.012  -8.345  1.00  0.00    -0.135 C 
ATOM     12  C0I MOL     1       1.555   6.263  -7.658  1.00  0.00    -0.071 C 
ATOM     13  C0H MOL     1       1.090   6.356  -6.363  1.00  0.00    -0.152 C 
ENDBRANCH   7   8
ENDBRANCH   5   7
BRANCH   6  14
ATOM     14  C0O MOL     1      -2.023   7.316  -4.125  1.00  0.00     0.092 C 
BRANCH  14  15
ATOM     15  N0P MOL     1      -2.221   7.686  -5.563  1.00  0.00    -0.153 N 
ATOM     16  H0Q MOL     1      -1.581   8.416  -5.832  1.00  0.00     0.257 HD
ATOM     17  H0R MOL     1      -1.927   6.894  -6.125  1.00  0.00     0.244 HD
ATOM     18  H0S MOL     1      -3.151   8.002  -5.799  1.00  0.00     0.246 HD
ENDBRANCH  14  15
ENDBRANCH   6  14
BRANCH   4  19
ATOM     19  C0A MOL     1       2.943   6.418  -3.201  1.00  0.00    -0.219 C 
BRANCH  19  20
ATOM     20  C0B MOL     1       4.241   7.122  -2.687  1.00  0.00     0.819 C 
ATOM     21  N0C MOL     1       4.647   6.817  -1.492  1.00  0.00    -0.993 N 
ATOM     22  H13 MOL     1       4.108   6.105  -1.006  1.00  0.00     0.395 HD
ATOM     23  H14 MOL     1       5.424   7.299  -1.079  1.00  0.00     0.440 HD
ATOM     24  O0D MOL     1       4.881   7.855  -3.418  1.00  0.00    -0.614 OA
ENDBRANCH  19  20
ENDBRANCH   4  19
BRANCH   1  25
ATOM     25  C01 MOL     1      -1.838   9.911  -2.743  1.00  0.00    -0.066 C 
ATOM     26  C00 MOL     1      -1.773  11.050  -3.871  1.00  0.00    -0.126 C 
ENDBRANCH   1  25
BRANCH   2  27
ATOM     27  C04 MOL     1       0.927  10.560  -1.461  1.00  0.00    -0.266 C 
BRANCH  27  28
ATOM     28  C05 MOL     1       0.436  10.572  -0.035  1.00  0.00     0.870 C 
ATOM     29  O06 MOL     1       0.012   9.596   0.551  1.00  0.00    -0.820 OA
ATOM     30  O07 MOL     1       0.548  11.663   0.620  1.00  0.00    -0.676 OA
ENDBRANCH  27  28
ENDBRANCH   2  27
TORSDOF 9
ENDMDL
MODEL 4
REMARK VINA RESULT:      -5.7      2.044      3.986
REMARK  9 active torsions:
REMARK  status: ('A' for Active; 'I' for Inactive)
REMARK    1  A    between atoms: C01_2  and  C02_3 
REMARK    2  A    between atoms: C03_4  and  C04_5 
REMARK    3  A    between atoms: C04_5  and  C05_6 
REMARK    4  A    between atoms: C09_10  and  C0A_11 
REMARK    5  A    between atoms: C0A_11  and  C0B_12 
REMARK       I    between atoms: C0B_12  and  N0C_13 
REMARK    6  A    between atoms: C0E_15  and  C0F_16 
REMARK    7  A    between atoms: C0F_16  and  C0G_17 
REMARK    8  A    between atoms: C0N_23  and  C0O_24 
REMARK    9  A    between atoms: C0O_24  and  N0P_25 
ROOT
ATOM      1  C02 MOL     1       0.863   6.468  -4.541  1.00  0.00    -0.044 C 
ATOM      2  C03 MOL     1       1.554   6.544  -5.758  1.00  0.00     0.129 C 
ATOM      3  C08 MOL     1       1.637   7.768  -6.535  1.00  0.00    -0.316 C 
ATOM      4  C09 MOL     1       1.132   8.928  -5.979  1.00  0.00     0.109 C 
ATOM      5  C0E MOL     1       0.388   8.914  -4.835  1.00  0.00    -0.064 C 
ATOM      6  C0N MOL     1       0.339   7.726  -4.067  1.00  0.00    -0.120 C 
ENDROOT
BRANCH   5   7
ATOM      7  C0F MOL     1      -0.234  10.212  -4.345  1.00  0.00     0.047 C 
BRANCH   7   8
ATOM      8  C0G MOL     1       0.390  10.950  -3.192  1.00  0.00     0.171 C 
ATOM      9  C0M MOL     1       1.789  11.083  -3.074  1.00  0.00    -0.195 C 
ATOM     10  C0K MOL     1       2.366  11.766  -1.972  1.00  0.00    -0.062 C 
ATOM     11  C0J MOL     1       1.601  12.175  -0.877  1.00  0.00    -0.135 C 
ATOM     12  C0I MOL     1       0.191  11.995  -1.011  1.00  0.00    -0.071 C 
ATOM     13  C0H MOL     1      -0.341  11.446  -2.158  1.00  0.00    -0.152 C 
ENDBRANCH   7   8
ENDBRANCH   5   7
BRANCH   6  14
ATOM     14  C0O MOL     1      -0.432   7.676  -2.708  1.00  0.00     0.092 C 
BRANCH  14  15
ATOM     15  N0P MOL     1       0.338   8.068  -1.484  1.00  0.00    -0.153 N 
ATOM     16  H0Q MOL     1      -0.257   8.056  -0.672  1.00  0.00     0.257 HD
ATOM     17  H0R MOL     1       1.010   7.329  -1.297  1.00  0.00     0.244 HD
ATOM     18  H0S MOL     1       0.771   8.980  -1.524  1.00  0.00     0.246 HD
ENDBRANCH  14  15
ENDBRANCH   6  14
BRANCH   4  19
ATOM     19  C0A MOL     1       1.511  10.241  -6.703  1.00  0.00    -0.219 C 
BRANCH  19  20
ATOM     20  C0B MOL     1       3.041  10.443  -6.953  1.00  0.00     0.819 C 
ATOM     21  N0C MOL     1       3.436  10.504  -8.188  1.00  0.00    -0.993 N 
ATOM     22  H13 MOL     1       2.704  10.463  -8.893  1.00  0.00     0.395 HD
ATOM     23  H14 MOL     1       4.414  10.548  -8.409  1.00  0.00     0.440 HD
ATOM     24  O0D MOL     1       3.805  10.620  -6.022  1.00  0.00    -0.614 OA
ENDBRANCH  19  20
ENDBRANCH   4  19
BRANCH   1  25
ATOM     25  C01 MOL     1       0.720   5.163  -3.726  1.00  0.00    -0.066 C 
ATOM     26  C00 MOL     1      -0.583   4.328  -4.148  1.00  0.00    -0.126 C 
ENDBRANCH   1  25
BRANCH   2  27
ATOM     27  C04 MOL     1       2.190   5.370  -6.466  1.00  0.00    -0.266 C 
BRANCH  27  28
ATOM     28  C05 MOL     1       1.428   4.845  -7.657  1.00  0.00     0.870 C 
ATOM     29  O06 MOL     1       1.770   5.003  -8.813  1.00  0.00    -0.820 OA
ATOM     30  O07 MOL     1       0.399   4.122  -7.430  1.00  0.00    -0.676 OA
ENDBRANCH  27  28
ENDBRANCH   2  27
TORSDOF 9
ENDMDL
MODEL 5
REMARK VINA RESULT:      -5.5     14.042     16.647
REMARK  9 active torsions:
REMARK  status: ('A' for Active; 'I' for Inactive)
REMARK    1  A    between atoms: C01_2  and  C02_3 
REMARK    2  A    between atoms: C03_4  and  C04_5 
REMARK    3  A    between atoms: C04_5  and  C05_6 
REMARK    4  A    between atoms: C09_10  and  C0A_11 
REMARK    5  A    between atoms: C0A_11  and  C0B_12 
REMARK       I    between atoms: C0B_12  and  N0C_13 
REMARK    6  A    between atoms: C0E_15  and  C0F_16 
REMARK    7  A    between atoms: C0F_16  and  C0G_17 
REMARK    8  A    between atoms: C0N_23  and  C0O_24 
REMARK    9  A    between atoms: C0O_24  and  N0P_25 
ROOT
ATOM      1  C02 MOL     1      -4.285   7.372 -20.404  1.00  0.00    -0.044 C 
ATOM      2  C03 MOL     1      -3.832   6.225 -19.737  1.00  0.00     0.129 C 
ATOM      3  C08 MOL     1      -2.425   5.981 -19.470  1.00  0.00    -0.316 C 
ATOM      4  C09 MOL     1      -1.522   6.985 -19.764  1.00  0.00     0.109 C 
ATOM      5  C0E MOL     1      -1.883   8.093 -20.475  1.00  0.00    -0.064 C 
ATOM      6  C0N MOL     1      -3.258   8.340 -20.702  1.00  0.00    -0.120 C 
ENDROOT
BRANCH   5   7
ATOM      7  C0F MOL     1      -0.812   9.100 -20.863  1.00  0.00     0.047 C 
BRANCH   7   8
ATOM      8  C0G MOL     1      -0.266   9.103 -22.265  1.00  0.00     0.171 C 
ATOM      9  C0M MOL     1      -0.094   7.907 -22.991  1.00  0.00    -0.195 C 
ATOM     10  C0K MOL     1       0.439   7.921 -24.307  1.00  0.00    -0.062 C 
ATOM     11  C0J MOL     1       0.978   9.082 -24.869  1.00  0.00    -0.135 C 
ATOM     12  C0I MOL     1       0.820  10.271 -24.095  1.00  0.00    -0.071 C 
ATOM     13  C0H MOL     1       0.176  10.235 -22.876  1.00  0.00    -0.152 C 
ENDBRANCH   7   8
ENDBRANCH   5   7
BRANCH   6  14
ATOM     14  C0O MOL     1      -3.734   9.634 -21.440  1.00  0.00     0.092 C 
BRANCH  14  15
ATOM     15  N0P MOL     1      -3.780   9.574 -22.936  1.00  0.00    -0.153 N 
ATOM     16  H0Q MOL     1      -4.675   9.887 -23.275  1.00  0.00     0.257 HD
ATOM     17  H0R MOL     1      -3.135  10.274 -23.290  1.00  0.00     0.244 HD
ATOM     18  H0S MOL     1      -3.613   8.661 -23.334  1.00  0.00     0.246 HD
ENDBRANCH  14  15
ENDBRANCH   6  14
BRANCH   4  19
ATOM     19  C0A MOL     1      -0.099   6.799 -19.190  1.00  0.00    -0.219 C 
BRANCH  19  20
ATOM     20  C0B MOL     1       0.100   7.316 -17.728  1.00  0.00     0.819 C 
ATOM     21  N0C MOL     1      -0.036   6.452 -16.770  1.00  0.00    -0.993 N 
ATOM     22  H13 MOL     1      -0.215   5.492 -17.056  1.00  0.00     0.395 HD
ATOM     23  H14 MOL     1      -0.002   6.744 -15.810  1.00  0.00     0.440 HD
ATOM     24  O0D MOL     1       0.452   8.463 -17.518  1.00  0.00    -0.614 OA
ENDBRANCH  19  20
ENDBRANCH   4  19
BRANCH   1  25
ATOM     25  C01 MOL     1      -5.771   7.624 -20.742  1.00  0.00    -0.066 C 
ATOM     26  C00 MOL     1      -6.194   6.957 -22.138  1.00  0.00    -0.126 C 
ENDBRANCH   1  25
BRANCH   2  27
ATOM     27  C04 MOL     1      -4.706   5.065 -19.319  1.00  0.00    -0.266 C 
BRANCH  27  28
ATOM     28  C05 MOL     1      -5.184   5.100 -17.889  1.00  0.00     0.870 C 
ATOM     29  O06 MOL     1      -5.945   5.936 -17.442  1.00  0.00    -0.820 OA
ATOM     30  O07 MOL     1      -4.825   4.144 -17.121  1.00  0.00    -0.676 OA
ENDBRANCH  27  28
ENDBRANCH   2  27
TORSDOF 9
ENDMDL
MODEL 6
REMARK VINA RESULT:      -5.5     20.083     22.872
REMARK  9 active torsions:
REMARK  status: ('A' for Active; 'I' for Inactive)
REMARK    1  A    between atoms: C01_2  and  C02_3 
REMARK    2  A    between atoms: C03_4  and  C04_5 
REMARK    3  A    between atoms: C04_5  and  C05_6 
REMARK    4  A    between atoms: C09_10  and  C0A_11 
REMARK    5  A    between atoms: C0A_11  and  C0B_12 
REMARK       I    between atoms: C0B_12  and  N0C_13 
REMARK    6  A    between atoms: C0E_15  and  C0F_16 
REMARK    7  A    between atoms: C0F_16  and  C0G_17 
REMARK    8  A    between atoms: C0N_23  and  C0O_24 
REMARK    9  A    between atoms: C0O_24  and  N0P_25 
ROOT
ATOM      1  C02 MOL     1     -12.384   1.802  11.733  1.00  0.00    -0.044 C 
ATOM      2  C03 MOL     1     -11.342   2.340  10.965  1.00  0.00     0.129 C 
ATOM      3  C08 MOL     1      -9.973   1.865  11.063  1.00  0.00    -0.316 C 
ATOM      4  C09 MOL     1      -9.723   0.751  11.841  1.00  0.00     0.109 C 
ATOM      5  C0E MOL     1     -10.673   0.222  12.666  1.00  0.00    -0.064 C 
ATOM      6  C0N MOL     1     -12.011   0.667  12.542  1.00  0.00    -0.120 C 
ENDROOT
BRANCH   5   7
ATOM      7  C0F MOL     1     -10.293  -0.932  13.581  1.00  0.00     0.047 C 
BRANCH   7   8
ATOM      8  C0G MOL     1     -10.382  -0.761  15.073  1.00  0.00     0.171 C 
ATOM      9  C0M MOL     1     -10.251   0.507  15.677  1.00  0.00    -0.195 C 
ATOM     10  C0K MOL     1     -10.319   0.653  17.087  1.00  0.00    -0.062 C 
ATOM     11  C0J MOL     1     -10.336  -0.453  17.942  1.00  0.00    -0.135 C 
ATOM     12  C0I MOL     1     -10.433  -1.724  17.300  1.00  0.00    -0.071 C 
ATOM     13  C0H MOL     1     -10.498  -1.814  15.925  1.00  0.00    -0.152 C 
ENDBRANCH   7   8
ENDBRANCH   5   7
BRANCH   6  14
ATOM     14  C0O MOL     1     -13.153   0.040  13.406  1.00  0.00     0.092 C 
BRANCH  14  15
ATOM     15  N0P MOL     1     -13.860  -1.146  12.825  1.00  0.00    -0.153 N 
ATOM     16  H0Q MOL     1     -14.259  -0.917  11.930  1.00  0.00     0.257 HD
ATOM     17  H0R MOL     1     -13.154  -1.841  12.599  1.00  0.00     0.244 HD
ATOM     18  H0S MOL     1     -14.603  -1.524  13.396  1.00  0.00     0.246 HD
ENDBRANCH  14  15
ENDBRANCH   6  14
BRANCH   4  19
ATOM     19  C0A MOL     1      -8.325   0.112  11.673  1.00  0.00    -0.219 C 
BRANCH  19  20
ATOM     20  C0B MOL     1      -7.365   0.865  10.695  1.00  0.00     0.819 C 
ATOM     21  N0C MOL     1      -7.410   0.528   9.443  1.00  0.00    -0.993 N 
ATOM     22  H13 MOL     1      -8.106  -0.171   9.194  1.00  0.00     0.395 HD
ATOM     23  H14 MOL     1      -6.759   0.917   8.786  1.00  0.00     0.440 HD
ATOM     24  O0D MOL     1      -6.674   1.787  11.091  1.00  0.00    -0.614 OA
ENDBRANCH  19  20
ENDBRANCH   4  19
BRANCH   1  25
ATOM     25  C01 MOL     1     -13.835   2.328  11.681  1.00  0.00    -0.066 C 
ATOM     26  C00 MOL     1     -14.656   1.711  10.449  1.00  0.00    -0.126 C 
ENDBRANCH   1  25
BRANCH   2  27
ATOM     27  C04 MOL     1     -11.472   3.531  10.043  1.00  0.00    -0.266 C 
BRANCH  27  28
ATOM     28  C05 MOL     1     -10.420   4.597  10.214  1.00  0.00     0.870 C 
ATOM     29  O06 MOL     1      -9.502   4.784   9.440  1.00  0.00    -0.820 OA
ATOM     30  O07 MOL     1     -10.550   5.405  11.195  1.00  0.00    -0.676 OA
ENDBRANCH  27  28
ENDBRANCH   2  27
TORSDOF 9
ENDMDL
MODEL 7
REMARK VINA RESULT:      -5.5      3.579      6.891
REMARK  9 active torsions:
REMARK  status: ('A' for Active; 'I' for Inactive)
REMARK    1  A    between atoms: C01_2  and  C02_3 
REMARK    2  A    between atoms: C03_4  and  C04_5 
REMARK    3  A    between atoms: C04_5  and  C05_6 
REMARK    4  A    between atoms: C09_10  and  C0A_11 
REMARK    5  A    between atoms: C0A_11  and  C0B_12 
REMARK       I    between atoms: C0B_12  and  N0C_13 
REMARK    6  A    between atoms: C0E_15  and  C0F_16 
REMARK    7  A    between atoms: C0F_16  and  C0G_17 
REMARK    8  A    between atoms: C0N_23  and  C0O_24 
REMARK    9  A    between atoms: C0O_24  and  N0P_25 
ROOT
ATOM      1  C02 MOL     1       1.281  10.828  -2.163  1.00  0.00    -0.044 C 
ATOM      2  C03 MOL     1       2.356  11.198  -2.983  1.00  0.00     0.129 C 
ATOM      3  C08 MOL     1       2.520  10.690  -4.334  1.00  0.00    -0.316 C 
ATOM      4  C09 MOL     1       1.502   9.924  -4.870  1.00  0.00     0.109 C 
ATOM      5  C0E MOL     1       0.465   9.470  -4.108  1.00  0.00    -0.064 C 
ATOM      6  C0N MOL     1       0.294   9.995  -2.805  1.00  0.00    -0.120 C 
ENDROOT
BRANCH   5   7
ATOM      7  C0F MOL     1      -0.557   8.536  -4.737  1.00  0.00     0.047 C 
BRANCH   7   8
ATOM      8  C0G MOL     1      -0.459   7.054  -4.495  1.00  0.00     0.171 C 
ATOM      9  C0M MOL     1       0.443   6.248  -5.220  1.00  0.00    -0.195 C 
ATOM     10  C0K MOL     1       0.513   4.848  -4.996  1.00  0.00    -0.062 C 
ATOM     11  C0J MOL     1      -0.417   4.185  -4.190  1.00  0.00    -0.135 C 
ATOM     12  C0I MOL     1      -1.340   5.025  -3.497  1.00  0.00    -0.071 C 
ATOM     13  C0H MOL     1      -1.288   6.395  -3.642  1.00  0.00    -0.152 C 
ENDBRANCH   7   8
ENDBRANCH   5   7
BRANCH   6  14
ATOM     14  C0O MOL     1      -0.922   9.571  -1.918  1.00  0.00     0.092 C 
BRANCH  14  15
ATOM     15  N0P MOL     1      -2.233  10.230  -2.216  1.00  0.00    -0.153 N 
ATOM     16  H0Q MOL     1      -2.995   9.591  -2.059  1.00  0.00     0.257 HD
ATOM     17  H0R MOL     1      -2.379  10.950  -1.515  1.00  0.00     0.244 HD
ATOM     18  H0S MOL     1      -2.330  10.585  -3.157  1.00  0.00     0.246 HD
ENDBRANCH  14  15
ENDBRANCH   6  14
BRANCH   4  19
ATOM     19  C0A MOL     1       1.586   9.665  -6.392  1.00  0.00    -0.219 C 
BRANCH  19  20
ATOM     20  C0B MOL     1       1.794  10.941  -7.272  1.00  0.00     0.819 C 
ATOM     21  N0C MOL     1       2.862  10.985  -8.008  1.00  0.00    -0.993 N 
ATOM     22  H13 MOL     1       3.453  10.158  -7.987  1.00  0.00     0.395 HD
ATOM     23  H14 MOL     1       3.089  11.813  -8.528  1.00  0.00     0.440 HD
ATOM     24  O0D MOL     1       0.941  11.809  -7.320  1.00  0.00    -0.614 OA
ENDBRANCH  19  20
ENDBRANCH   4  19
BRANCH   1  25
ATOM     25  C01 MOL     1       1.118  11.317  -0.707  1.00  0.00    -0.066 C 
ATOM     26  C00 MOL     1       0.371  12.735  -0.628  1.00  0.00    -0.126 C 
ENDBRANCH   1  25
BRANCH   2  27
ATOM     27  C04 MOL     1       3.521  12.059  -2.548  1.00  0.00    -0.266 C 
BRANCH  27  28
ATOM     28  C05 MOL     1       4.672  11.316  -1.919  1.00  0.00     0.870 C 
ATOM     29  O06 MOL     1       5.611  10.855  -2.539  1.00  0.00    -0.820 OA
ATOM     30  O07 MOL     1       4.698  11.235  -0.644  1.00  0.00    -0.676 OA
ENDBRANCH  27  28
ENDBRANCH   2  27
TORSDOF 9
ENDMDL
MODEL 8
REMARK VINA RESULT:      -5.5      4.640      7.262
REMARK  9 active torsions:
REMARK  status: ('A' for Active; 'I' for Inactive)
REMARK    1  A    between atoms: C01_2  and  C02_3 
REMARK    2  A    between atoms: C03_4  and  C04_5 
REMARK    3  A    between atoms: C04_5  and  C05_6 
REMARK    4  A    between atoms: C09_10  and  C0A_11 
REMARK    5  A    between atoms: C0A_11  and  C0B_12 
REMARK       I    between atoms: C0B_12  and  N0C_13 
REMARK    6  A    between atoms: C0E_15  and  C0F_16 
REMARK    7  A    between atoms: C0F_16  and  C0G_17 
REMARK    8  A    between atoms: C0N_23  and  C0O_24 
REMARK    9  A    between atoms: C0O_24  and  N0P_25 
ROOT
ATOM      1  C02 MOL     1       1.537  10.526  -1.956  1.00  0.00    -0.044 C 
ATOM      2  C03 MOL     1       0.323  11.222  -1.873  1.00  0.00     0.129 C 
ATOM      3  C08 MOL     1      -0.024  12.056  -0.735  1.00  0.00    -0.316 C 
ATOM      4  C09 MOL     1       0.940  12.275   0.231  1.00  0.00     0.109 C 
ATOM      5  C0E MOL     1       2.112  11.577   0.249  1.00  0.00    -0.064 C 
ATOM      6  C0N MOL     1       2.458  10.793  -0.878  1.00  0.00    -0.120 C 
ENDROOT
BRANCH   5   7
ATOM      7  C0F MOL     1       3.075  11.785   1.407  1.00  0.00     0.047 C 
BRANCH   7   8
ATOM      8  C0G MOL     1       2.920  10.969   2.662  1.00  0.00     0.171 C 
ATOM      9  C0M MOL     1       2.247   9.730   2.655  1.00  0.00    -0.195 C 
ATOM     10  C0K MOL     1       2.091   8.977   3.848  1.00  0.00    -0.062 C 
ATOM     11  C0J MOL     1       2.433   9.501   5.098  1.00  0.00    -0.135 C 
ATOM     12  C0I MOL     1       3.081  10.773   5.075  1.00  0.00    -0.071 C 
ATOM     13  C0H MOL     1       3.332  11.412   3.879  1.00  0.00    -0.152 C 
ENDBRANCH   7   8
ENDBRANCH   5   7
BRANCH   6  14
ATOM     14  C0O MOL     1       3.825  10.037  -0.945  1.00  0.00     0.092 C 
BRANCH  14  15
ATOM     15  N0P MOL     1       3.887   8.701  -0.271  1.00  0.00    -0.153 N 
ATOM     16  H0Q MOL     1       3.684   8.790   0.711  1.00  0.00     0.257 HD
ATOM     17  H0R MOL     1       3.112   8.146  -0.623  1.00  0.00     0.244 HD
ATOM     18  H0S MOL     1       4.772   8.220  -0.351  1.00  0.00     0.246 HD
ENDBRANCH  14  15
ENDBRANCH   6  14
BRANCH   4  19
ATOM     19  C0A MOL     1       0.628  13.395   1.250  1.00  0.00    -0.219 C 
BRANCH  19  20
ATOM     20  C0B MOL     1      -0.203  12.947   2.496  1.00  0.00     0.819 C 
ATOM     21  N0C MOL     1      -0.591  13.877   3.315  1.00  0.00    -0.993 N 
ATOM     22  H13 MOL     1      -0.360  14.831   3.049  1.00  0.00     0.395 HD
ATOM     23  H14 MOL     1      -1.055  13.640   4.172  1.00  0.00     0.440 HD
ATOM     24  O0D MOL     1      -0.540  11.785   2.633  1.00  0.00    -0.614 OA
ENDBRANCH  19  20
ENDBRANCH   4  19
BRANCH   1  25
ATOM     25  C01 MOL     1       1.902   9.596  -3.133  1.00  0.00    -0.066 C 
ATOM     26  C00 MOL     1       1.380   8.097  -2.901  1.00  0.00    -0.126 C 
ENDBRANCH   1  25
BRANCH   2  27
ATOM     27  C04 MOL     1      -0.807  11.113  -2.871  1.00  0.00    -0.266 C 
BRANCH  27  28
ATOM     28  C05 MOL     1      -1.752   9.959  -2.650  1.00  0.00     0.870 C 
ATOM     29  O06 MOL     1      -1.841   9.336  -1.611  1.00  0.00    -0.820 OA
ATOM     30  O07 MOL     1      -2.565   9.672  -3.593  1.00  0.00    -0.676 OA
ENDBRANCH  27  28
ENDBRANCH   2  27
TORSDOF 9
ENDMDL
MODEL 9
REMARK VINA RESULT:      -5.4      2.674      6.193
REMARK  9 active torsions:
REMARK  status: ('A' for Active; 'I' for Inactive)
REMARK    1  A    between atoms: C01_2  and  C02_3 
REMARK    2  A    between atoms: C03_4  and  C04_5 
REMARK    3  A    between atoms: C04_5  and  C05_6 
REMARK    4  A    between atoms: C09_10  and  C0A_11 
REMARK    5  A    between atoms: C0A_11  and  C0B_12 
REMARK       I    between atoms: C0B_12  and  N0C_13 
REMARK    6  A    between atoms: C0E_15  and  C0F_16 
REMARK    7  A    between atoms: C0F_16  and  C0G_17 
REMARK    8  A    between atoms: C0N_23  and  C0O_24 
REMARK    9  A    between atoms: C0O_24  and  N0P_25 
ROOT
ATOM      1  C02 MOL     1       1.173   8.251  -2.570  1.00  0.00    -0.044 C 
ATOM      2  C03 MOL     1      -0.128   7.833  -2.881  1.00  0.00     0.129 C 
ATOM      3  C08 MOL     1      -0.402   6.608  -3.612  1.00  0.00    -0.316 C 
ATOM      4  C09 MOL     1       0.655   5.761  -3.883  1.00  0.00     0.109 C 
ATOM      5  C0E MOL     1       1.951   6.135  -3.671  1.00  0.00    -0.064 C 
ATOM      6  C0N MOL     1       2.208   7.313  -2.930  1.00  0.00    -0.120 C 
ENDROOT
BRANCH   5   7
ATOM      7  C0F MOL     1       3.068   5.198  -4.103  1.00  0.00     0.047 C 
BRANCH   7   8
ATOM      8  C0G MOL     1       3.629   5.298  -5.495  1.00  0.00     0.171 C 
ATOM      9  C0M MOL     1       4.433   4.276  -6.039  1.00  0.00    -0.195 C 
ATOM     10  C0K MOL     1       4.971   4.390  -7.348  1.00  0.00    -0.062 C 
ATOM     11  C0J MOL     1       4.882   5.578  -8.079  1.00  0.00    -0.135 C 
ATOM     12  C0I MOL     1       4.091   6.607  -7.486  1.00  0.00    -0.071 C 
ATOM     13  C0H MOL     1       3.475   6.406  -6.269  1.00  0.00    -0.152 C 
ENDBRANCH   7   8
ENDBRANCH   5   7
BRANCH   6  14
ATOM     14  C0O MOL     1       3.671   7.748  -2.589  1.00  0.00     0.092 C 
BRANCH  14  15
ATOM     15  N0P MOL     1       4.394   8.547  -3.630  1.00  0.00    -0.153 N 
ATOM     16  H0Q MOL     1       4.360   8.080  -4.521  1.00  0.00     0.257 HD
ATOM     17  H0R MOL     1       3.861   9.397  -3.787  1.00  0.00     0.244 HD
ATOM     18  H0S MOL     1       5.366   8.735  -3.428  1.00  0.00     0.246 HD
ENDBRANCH  14  15
ENDBRANCH   6  14
BRANCH   4  19
ATOM     19  C0A MOL     1       0.274   4.349  -4.386  1.00  0.00    -0.219 C 
BRANCH  19  20
ATOM     20  C0B MOL     1      -0.006   4.244  -5.920  1.00  0.00     0.819 C 
ATOM     21  N0C MOL     1      -0.626   3.184  -6.338  1.00  0.00    -0.993 N 
ATOM     22  H13 MOL     1      -0.923   2.528  -5.619  1.00  0.00     0.395 HD
ATOM     23  H14 MOL     1      -0.758   3.023  -7.320  1.00  0.00     0.440 HD
ATOM     24  O0D MOL     1       0.274   5.164  -6.667  1.00  0.00    -0.614 OA
ENDBRANCH  19  20
ENDBRANCH   4  19
BRANCH   1  25
ATOM     25  C01 MOL     1       1.487   9.575  -1.839  1.00  0.00    -0.066 C 
ATOM     26  C00 MOL     1       1.637  10.805  -2.858  1.00  0.00    -0.126 C 
ENDBRANCH   1  25
BRANCH   2  27
ATOM     27  C04 MOL     1      -1.382   8.634  -2.611  1.00  0.00    -0.266 C 
BRANCH  27  28
ATOM     28  C05 MOL     1      -1.992   9.303  -3.818  1.00  0.00     0.870 C 
ATOM     29  O06 MOL     1      -2.918   8.846  -4.459  1.00  0.00    -0.820 OA
ATOM     30  O07 MOL     1      -1.556  10.461  -4.136  1.00  0.00    -0.676 OA
ENDBRANCH  27  28
ENDBRANCH   2  27
TORSDOF 9
ENDMDL
MODEL 10
REMARK VINA RESULT:      -5.3     15.652     18.252
REMARK  9 active torsions:
REMARK  status: ('A' for Active; 'I' for Inactive)
REMARK    1  A    between atoms: C01_2  and  C02_3 
REMARK    2  A    between atoms: C03_4  and  C04_5 
REMARK    3  A    between atoms: C04_5  and  C05_6 
REMARK    4  A    between atoms: C09_10  and  C0A_11 
REMARK    5  A    between atoms: C0A_11  and  C0B_12 
REMARK       I    between atoms: C0B_12  and  N0C_13 
REMARK    6  A    between atoms: C0E_15  and  C0F_16 
REMARK    7  A    between atoms: C0F_16  and  C0G_17 
REMARK    8  A    between atoms: C0N_23  and  C0O_24 
REMARK    9  A    between atoms: C0O_24  and  N0P_25 
ROOT
ATOM      1  C02 MOL     1      -3.756   6.759 -19.898  1.00  0.00    -0.044 C 
ATOM      2  C03 MOL     1      -2.392   6.819 -20.215  1.00  0.00     0.129 C 
ATOM      3  C08 MOL     1      -1.888   7.555 -21.361  1.00  0.00    -0.316 C 
ATOM      4  C09 MOL     1      -2.776   8.334 -22.077  1.00  0.00     0.109 C 
ATOM      5  C0E MOL     1      -4.123   8.268 -21.868  1.00  0.00    -0.064 C 
ATOM      6  C0N MOL     1      -4.604   7.577 -20.730  1.00  0.00    -0.120 C 
ENDROOT
BRANCH   5   7
ATOM      7  C0F MOL     1      -5.049   9.066 -22.772  1.00  0.00     0.047 C 
BRANCH   7   8
ATOM      8  C0G MOL     1      -5.626   8.421 -24.003  1.00  0.00     0.171 C 
ATOM      9  C0M MOL     1      -5.049   8.616 -25.275  1.00  0.00    -0.195 C 
ATOM     10  C0K MOL     1      -5.612   8.016 -26.431  1.00  0.00    -0.062 C 
ATOM     11  C0J MOL     1      -6.848   7.365 -26.394  1.00  0.00    -0.135 C 
ATOM     12  C0I MOL     1      -7.425   7.215 -25.097  1.00  0.00    -0.071 C 
ATOM     13  C0H MOL     1      -6.777   7.699 -23.980  1.00  0.00    -0.152 C 
ENDBRANCH   7   8
ENDBRANCH   5   7
BRANCH   6  14
ATOM     14  C0O MOL     1      -6.131   7.537 -20.397  1.00  0.00     0.092 C 
BRANCH  14  15
ATOM     15  N0P MOL     1      -6.606   8.451 -19.310  1.00  0.00    -0.153 N 
ATOM     16  H0Q MOL     1      -6.827   7.927 -18.479  1.00  0.00     0.257 HD
ATOM     17  H0R MOL     1      -5.816   9.023 -19.026  1.00  0.00     0.244 HD
ATOM     18  H0S MOL     1      -7.419   9.005 -19.540  1.00  0.00     0.246 HD
ENDBRANCH  14  15
ENDBRANCH   6  14
BRANCH   4  19
ATOM     19  C0A MOL     1      -2.143   9.321 -23.086  1.00  0.00    -0.219 C 
BRANCH  19  20
ATOM     20  C0B MOL     1      -1.782  10.726 -22.502  1.00  0.00     0.819 C 
ATOM     21  N0C MOL     1      -0.568  10.896 -22.076  1.00  0.00    -0.993 N 
ATOM     22  H13 MOL     1       0.064  10.109 -22.204  1.00  0.00     0.395 HD
ATOM     23  H14 MOL     1      -0.303  11.747 -21.616  1.00  0.00     0.440 HD
ATOM     24  O0D MOL     1      -2.589  11.637 -22.532  1.00  0.00    -0.614 OA
ENDBRANCH  19  20
ENDBRANCH   4  19
BRANCH   1  25
ATOM     25  C01 MOL     1      -4.317   5.940 -18.714  1.00  0.00    -0.066 C 
ATOM     26  C00 MOL     1      -4.381   4.371 -19.042  1.00  0.00    -0.126 C 
ENDBRANCH   1  25
BRANCH   2  27
ATOM     27  C04 MOL     1      -1.303   6.054 -19.498  1.00  0.00    -0.266 C 
BRANCH  27  28
ATOM     28  C05 MOL     1      -0.634   6.793 -18.367  1.00  0.00     0.870 C 
ATOM     29  O06 MOL     1      -0.359   6.297 -17.292  1.00  0.00    -0.820 OA
ATOM     30  O07 MOL     1      -0.263   7.997 -18.583  1.00  0.00    -0.676 OA
ENDBRANCH  27  28
ENDBRANCH   2  27
TORSDOF 9
ENDMDL
MODEL 11
REMARK VINA RESULT:      -5.3      2.374      4.071
REMARK  9 active torsions:
REMARK  status: ('A' for Active; 'I' for Inactive)
REMARK    1  A    between atoms: C01_2  and  C02_3 
REMARK    2  A    between atoms: C03_4  and  C04_5 
REMARK    3  A    between atoms: C04_5  and  C05_6 
REMARK    4  A    between atoms: C09_10  and  C0A_11 
REMARK    5  A    between atoms: C0A_11  and  C0B_12 
REMARK       I    between atoms: C0B_12  and  N0C_13 
REMARK    6  A    between atoms: C0E_15  and  C0F_16 
REMARK    7  A    between atoms: C0F_16  and  C0G_17 
REMARK    8  A    between atoms: C0N_23  and  C0O_24 
REMARK    9  A    between atoms: C0O_24  and  N0P_25 
ROOT
ATOM      1  C02 MOL     1       0.085   6.360  -5.394  1.00  0.00    -0.044 C 
ATOM      2  C03 MOL     1       1.227   6.794  -6.082  1.00  0.00     0.129 C 
ATOM      3  C08 MOL     1       1.630   8.189  -6.126  1.00  0.00    -0.316 C 
ATOM      4  C09 MOL     1       0.936   9.093  -5.344  1.00  0.00     0.109 C 
ATOM      5  C0E MOL     1      -0.222   8.753  -4.707  1.00  0.00    -0.064 C 
ATOM      6  C0N MOL     1      -0.590   7.388  -4.641  1.00  0.00    -0.120 C 
ENDROOT
BRANCH   5   7
ATOM      7  C0F MOL     1      -0.994   9.830  -3.960  1.00  0.00     0.047 C 
BRANCH   7   8
ATOM      8  C0G MOL     1      -0.530  10.272  -2.599  1.00  0.00     0.171 C 
ATOM      9  C0M MOL     1      -0.435  11.638  -2.262  1.00  0.00    -0.195 C 
ATOM     10  C0K MOL     1       0.021  12.043  -0.981  1.00  0.00    -0.062 C 
ATOM     11  C0J MOL     1       0.561  11.131  -0.069  1.00  0.00    -0.135 C 
ATOM     12  C0I MOL     1       0.483   9.759  -0.454  1.00  0.00    -0.071 C 
ATOM     13  C0H MOL     1      -0.090   9.398  -1.655  1.00  0.00    -0.152 C 
ENDBRANCH   7   8
ENDBRANCH   5   7
BRANCH   6  14
ATOM     14  C0O MOL     1      -1.864   6.934  -3.856  1.00  0.00     0.092 C 
BRANCH  14  15
ATOM     15  N0P MOL     1      -1.666   6.537  -2.426  1.00  0.00    -0.153 N 
ATOM     16  H0Q MOL     1      -1.826   5.550  -2.307  1.00  0.00     0.257 HD
ATOM     17  H0R MOL     1      -0.678   6.644  -2.214  1.00  0.00     0.244 HD
ATOM     18  H0S MOL     1      -2.256   7.018  -1.762  1.00  0.00     0.246 HD
ENDBRANCH  14  15
ENDBRANCH   6  14
BRANCH   4  19
ATOM     19  C0A MOL     1       1.585  10.488  -5.192  1.00  0.00    -0.219 C 
BRANCH  19  20
ATOM     20  C0B MOL     1       1.784  11.276  -6.528  1.00  0.00     0.819 C 
ATOM     21  N0C MOL     1       0.714  11.647  -7.162  1.00  0.00    -0.993 N 
ATOM     22  H13 MOL     1      -0.170  11.433  -6.708  1.00  0.00     0.395 HD
ATOM     23  H14 MOL     1       0.781  12.081  -8.065  1.00  0.00     0.440 HD
ATOM     24  O0D MOL     1       2.899  11.597  -6.900  1.00  0.00    -0.614 OA
ENDBRANCH  19  20
ENDBRANCH   4  19
BRANCH   1  25
ATOM     25  C01 MOL     1      -0.388   4.890  -5.379  1.00  0.00    -0.066 C 
ATOM     26  C00 MOL     1       0.207   4.078  -4.130  1.00  0.00    -0.126 C 
ENDBRANCH   1  25
BRANCH   2  27
ATOM     27  C04 MOL     1       2.104   5.916  -6.944  1.00  0.00    -0.266 C 
BRANCH  27  28
ATOM     28  C05 MOL     1       3.412   5.500  -6.319  1.00  0.00     0.870 C 
ATOM     29  O06 MOL     1       3.507   4.877  -5.280  1.00  0.00    -0.820 OA
ATOM     30  O07 MOL     1       4.484   5.752  -6.967  1.00  0.00    -0.676 OA
ENDBRANCH  27  28
ENDBRANCH   2  27
TORSDOF 9
ENDMDL
MODEL 12
REMARK VINA RESULT:      -5.2     12.133     15.169
REMARK  9 active torsions:
REMARK  status: ('A' for Active; 'I' for Inactive)
REMARK    1  A    between atoms: C01_2  and  C02_3 
REMARK    2  A    between atoms: C03_4  and  C04_5 
REMARK    3  A    between atoms: C04_5  and  C05_6 
REMARK    4  A    between atoms: C09_10  and  C0A_11 
REMARK    5  A    between atoms: C0A_11  and  C0B_12 
REMARK       I    between atoms: C0B_12  and  N0C_13 
REMARK    6  A    between atoms: C0E_15  and  C0F_16 
REMARK    7  A    between atoms: C0F_16  and  C0G_17 
REMARK    8  A    between atoms: C0N_23  and  C0O_24 
REMARK    9  A    between atoms: C0O_24  and  N0P_25 
ROOT
ATOM      1  C02 MOL     1       2.095   7.624 -18.171  1.00  0.00    -0.044 C 
ATOM      2  C03 MOL     1       1.919   9.003 -18.345  1.00  0.00     0.129 C 
ATOM      3  C08 MOL     1       0.918   9.557 -19.241  1.00  0.00    -0.316 C 
ATOM      4  C09 MOL     1       0.020   8.687 -19.832  1.00  0.00     0.109 C 
ATOM      5  C0E MOL     1       0.177   7.333 -19.761  1.00  0.00    -0.064 C 
ATOM      6  C0N MOL     1       1.132   6.802 -18.862  1.00  0.00    -0.120 C 
ENDROOT
BRANCH   5   7
ATOM      7  C0F MOL     1      -0.782   6.440 -20.534  1.00  0.00     0.047 C 
BRANCH   7   8
ATOM      8  C0G MOL     1      -2.125   6.104 -19.945  1.00  0.00     0.171 C 
ATOM      9  C0M MOL     1      -2.242   5.314 -18.783  1.00  0.00    -0.195 C 
ATOM     10  C0K MOL     1      -3.516   4.989 -18.248  1.00  0.00    -0.062 C 
ATOM     11  C0J MOL     1      -4.698   5.277 -18.935  1.00  0.00    -0.135 C 
ATOM     12  C0I MOL     1      -4.544   6.047 -20.127  1.00  0.00    -0.071 C 
ATOM     13  C0H MOL     1      -3.295   6.456 -20.542  1.00  0.00    -0.152 C 
ENDBRANCH   7   8
ENDBRANCH   5   7
BRANCH   6  14
ATOM     14  C0O MOL     1       1.298   5.258 -18.682  1.00  0.00     0.092 C 
BRANCH  14  15
ATOM     15  N0P MOL     1       0.613   4.642 -17.500  1.00  0.00    -0.153 N 
ATOM     16  H0Q MOL     1       1.279   4.436 -16.774  1.00  0.00     0.257 HD
ATOM     17  H0R MOL     1       0.022   5.356 -17.085  1.00  0.00     0.244 HD
ATOM     18  H0S MOL     1       0.108   3.789 -17.694  1.00  0.00     0.246 HD
ENDBRANCH  14  15
ENDBRANCH   6  14
BRANCH   4  19
ATOM     19  C0A MOL     1      -1.196   9.344 -20.525  1.00  0.00    -0.219 C 
BRANCH  19  20
ATOM     20  C0B MOL     1      -0.886  10.038 -21.891  1.00  0.00     0.819 C 
ATOM     21  N0C MOL     1      -0.427   9.289 -22.846  1.00  0.00    -0.993 N 
ATOM     22  H13 MOL     1      -0.353   8.296 -22.637  1.00  0.00     0.395 HD
ATOM     23  H14 MOL     1      -0.133   9.693 -23.716  1.00  0.00     0.440 HD
ATOM     24  O0D MOL     1      -1.151  11.214 -22.065  1.00  0.00    -0.614 OA
ENDBRANCH  19  20
ENDBRANCH   4  19
BRANCH   1  25
ATOM     25  C01 MOL     1       3.187   7.017 -17.263  1.00  0.00    -0.066 C 
ATOM     26  C00 MOL     1       2.685   6.843 -15.750  1.00  0.00    -0.126 C 
ENDBRANCH   1  25
BRANCH   2  27
ATOM     27  C04 MOL     1       2.795  10.073 -17.734  1.00  0.00    -0.266 C 
BRANCH  27  28
ATOM     28  C05 MOL     1       2.603  10.295 -16.255  1.00  0.00     0.870 C 
ATOM     29  O06 MOL     1       1.524  10.472 -15.723  1.00  0.00    -0.820 OA
ATOM     30  O07 MOL     1       3.635  10.214 -15.505  1.00  0.00    -0.676 OA
ENDBRANCH  27  28
ENDBRANCH   2  27
TORSDOF 9
ENDMDL
MODEL 13
REMARK VINA RESULT:      -5.2     14.244     17.098
REMARK  9 active torsions:
REMARK  status: ('A' for Active; 'I' for Inactive)
REMARK    1  A    between atoms: C01_2  and  C02_3 
REMARK    2  A    between atoms: C03_4  and  C04_5 
REMARK    3  A    between atoms: C04_5  and  C05_6 
REMARK    4  A    between atoms: C09_10  and  C0A_11 
REMARK    5  A    between atoms: C0A_11  and  C0B_12 
REMARK       I    between atoms: C0B_12  and  N0C_13 
REMARK    6  A    between atoms: C0E_15  and  C0F_16 
REMARK    7  A    between atoms: C0F_16  and  C0G_17 
REMARK    8  A    between atoms: C0N_23  and  C0O_24 
REMARK    9  A    between atoms: C0O_24  and  N0P_25 
ROOT
ATOM      1  C02 MOL     1      -2.296   8.235 -21.811  1.00  0.00    -0.044 C 
ATOM      2  C03 MOL     1      -2.922   7.642 -20.707  1.00  0.00     0.129 C 
ATOM      3  C08 MOL     1      -2.216   6.775 -19.780  1.00  0.00    -0.316 C 
ATOM      4  C09 MOL     1      -0.847   6.647 -19.921  1.00  0.00     0.109 C 
ATOM      5  C0E MOL     1      -0.187   7.138 -21.009  1.00  0.00    -0.064 C 
ATOM      6  C0N MOL     1      -0.873   8.008 -21.890  1.00  0.00    -0.120 C 
ENDROOT
BRANCH   5   7
ATOM      7  C0F MOL     1       1.301   6.858 -21.156  1.00  0.00     0.047 C 
BRANCH   7   8
ATOM      8  C0G MOL     1       1.761   5.526 -21.682  1.00  0.00     0.171 C 
ATOM      9  C0M MOL     1       1.210   4.967 -22.853  1.00  0.00    -0.195 C 
ATOM     10  C0K MOL     1       1.639   3.701 -23.330  1.00  0.00    -0.062 C 
ATOM     11  C0J MOL     1       2.482   2.879 -22.577  1.00  0.00    -0.135 C 
ATOM     12  C0I MOL     1       2.996   3.459 -21.378  1.00  0.00    -0.071 C 
ATOM     13  C0H MOL     1       2.656   4.746 -21.019  1.00  0.00    -0.152 C 
ENDBRANCH   7   8
ENDBRANCH   5   7
BRANCH   6  14
ATOM     14  C0O MOL     1      -0.144   8.663 -23.108  1.00  0.00     0.092 C 
BRANCH  14  15
ATOM     15  N0P MOL     1      -0.105   7.865 -24.375  1.00  0.00    -0.153 N 
ATOM     16  H0Q MOL     1       0.063   8.465 -25.166  1.00  0.00     0.257 HD
ATOM     17  H0R MOL     1       0.725   7.280 -24.341  1.00  0.00     0.244 HD
ATOM     18  H0S MOL     1      -0.941   7.334 -24.573  1.00  0.00     0.246 HD
ENDBRANCH  14  15
ENDBRANCH   6  14
BRANCH   4  19
ATOM     19  C0A MOL     1      -0.110   5.966 -18.744  1.00  0.00    -0.219 C 
BRANCH  19  20
ATOM     20  C0B MOL     1       0.057   6.851 -17.465  1.00  0.00     0.819 C 
ATOM     21  N0C MOL     1       0.023   6.246 -16.318  1.00  0.00    -0.993 N 
ATOM     22  H13 MOL     1      -0.064   5.233 -16.350  1.00  0.00     0.395 HD
ATOM     23  H14 MOL     1       0.041   6.771 -15.464  1.00  0.00     0.440 HD
ATOM     24  O0D MOL     1       0.297   8.041 -17.561  1.00  0.00    -0.614 OA
ENDBRANCH  19  20
ENDBRANCH   4  19
BRANCH   1  25
ATOM     25  C01 MOL     1      -3.041   9.118 -22.836  1.00  0.00    -0.066 C 
ATOM     26  C00 MOL     1      -3.243  10.618 -22.306  1.00  0.00    -0.126 C 
ENDBRANCH   1  25
BRANCH   2  27
ATOM     27  C04 MOL     1      -4.400   7.726 -20.402  1.00  0.00    -0.266 C 
BRANCH  27  28
ATOM     28  C05 MOL     1      -5.278   6.803 -21.209  1.00  0.00     0.870 C 
ATOM     29  O06 MOL     1      -6.152   7.178 -21.967  1.00  0.00    -0.820 OA
ATOM     30  O07 MOL     1      -5.034   5.550 -21.149  1.00  0.00    -0.676 OA
ENDBRANCH  27  28
ENDBRANCH   2  27
TORSDOF 9
ENDMDL
MODEL 14
REMARK VINA RESULT:      -5.2     17.317     19.836
REMARK  9 active torsions:
REMARK  status: ('A' for Active; 'I' for Inactive)
REMARK    1  A    between atoms: C01_2  and  C02_3 
REMARK    2  A    between atoms: C03_4  and  C04_5 
REMARK    3  A    between atoms: C04_5  and  C05_6 
REMARK    4  A    between atoms: C09_10  and  C0A_11 
REMARK    5  A    between atoms: C0A_11  and  C0B_12 
REMARK       I    between atoms: C0B_12  and  N0C_13 
REMARK    6  A    between atoms: C0E_15  and  C0F_16 
REMARK    7  A    between atoms: C0F_16  and  C0G_17 
REMARK    8  A    between atoms: C0N_23  and  C0O_24 
REMARK    9  A    between atoms: C0O_24  and  N0P_25 
ROOT
ATOM      1  C02 MOL     1      -4.587   7.853 -21.281  1.00  0.00    -0.044 C 
ATOM      2  C03 MOL     1      -3.263   8.304 -21.190  1.00  0.00     0.129 C 
ATOM      3  C08 MOL     1      -2.603   9.015 -22.271  1.00  0.00    -0.316 C 
ATOM      4  C09 MOL     1      -3.358   9.375 -23.371  1.00  0.00     0.109 C 
ATOM      5  C0E MOL     1      -4.628   8.910 -23.556  1.00  0.00    -0.064 C 
ATOM      6  C0N MOL     1      -5.276   8.248 -22.486  1.00  0.00    -0.120 C 
ENDROOT
BRANCH   5   7
ATOM      7  C0F MOL     1      -5.357   9.253 -24.846  1.00  0.00     0.047 C 
BRANCH   7   8
ATOM      8  C0G MOL     1      -5.346   8.276 -25.990  1.00  0.00     0.171 C 
ATOM      9  C0M MOL     1      -6.489   7.521 -26.324  1.00  0.00    -0.195 C 
ATOM     10  C0K MOL     1      -6.461   6.590 -27.395  1.00  0.00    -0.062 C 
ATOM     11  C0J MOL     1      -5.270   6.249 -28.043  1.00  0.00    -0.135 C 
ATOM     12  C0I MOL     1      -4.123   7.006 -27.658  1.00  0.00    -0.071 C 
ATOM     13  C0H MOL     1      -4.223   7.996 -26.703  1.00  0.00    -0.152 C 
ENDBRANCH   7   8
ENDBRANCH   5   7
BRANCH   6  14
ATOM     14  C0O MOL     1      -6.757   7.765 -22.614  1.00  0.00     0.092 C 
BRANCH  14  15
ATOM     15  N0P MOL     1      -6.965   6.336 -23.014  1.00  0.00    -0.153 N 
ATOM     16  H0Q MOL     1      -7.197   5.775 -22.212  1.00  0.00     0.257 HD
ATOM     17  H0R MOL     1      -7.806   6.298 -23.582  1.00  0.00     0.244 HD
ATOM     18  H0S MOL     1      -6.175   5.899 -23.467  1.00  0.00     0.246 HD
ENDBRANCH  14  15
ENDBRANCH   6  14
BRANCH   4  19
ATOM     19  C0A MOL     1      -2.696  10.379 -24.343  1.00  0.00    -0.219 C 
BRANCH  19  20
ATOM     20  C0B MOL     1      -2.907  11.886 -23.986  1.00  0.00     0.819 C 
ATOM     21  N0C MOL     1      -3.864  12.512 -24.599  1.00  0.00    -0.993 N 
ATOM     22  H13 MOL     1      -4.432  11.951 -25.230  1.00  0.00     0.395 HD
ATOM     23  H14 MOL     1      -3.992  13.499 -24.472  1.00  0.00     0.440 HD
ATOM     24  O0D MOL     1      -2.251  12.414 -23.105  1.00  0.00    -0.614 OA
ENDBRANCH  19  20
ENDBRANCH   4  19
BRANCH   1  25
ATOM     25  C01 MOL     1      -5.289   7.052 -20.163  1.00  0.00    -0.066 C 
ATOM     26  C00 MOL     1      -6.026   8.008 -19.107  1.00  0.00    -0.126 C 
ENDBRANCH   1  25
BRANCH   2  27
ATOM     27  C04 MOL     1      -2.330   8.022 -20.035  1.00  0.00    -0.266 C 
BRANCH  27  28
ATOM     28  C05 MOL     1      -1.725   6.641 -20.018  1.00  0.00     0.870 C 
ATOM     29  O06 MOL     1      -0.917   6.237 -20.832  1.00  0.00    -0.820 OA
ATOM     30  O07 MOL     1      -2.024   5.876 -19.039  1.00  0.00    -0.676 OA
ENDBRANCH  27  28
ENDBRANCH   2  27
TORSDOF 9
ENDMDL
MODEL 15
REMARK VINA RESULT:      -5.1      9.928     12.952
REMARK  9 active torsions:
REMARK  status: ('A' for Active; 'I' for Inactive)
REMARK    1  A    between atoms: C01_2  and  C02_3 
REMARK    2  A    between atoms: C03_4  and  C04_5 
REMARK    3  A    between atoms: C04_5  and  C05_6 
REMARK    4  A    between atoms: C09_10  and  C0A_11 
REMARK    5  A    between atoms: C0A_11  and  C0B_12 
REMARK       I    between atoms: C0B_12  and  N0C_13 
REMARK    6  A    between atoms: C0E_15  and  C0F_16 
REMARK    7  A    between atoms: C0F_16  and  C0G_17 
REMARK    8  A    between atoms: C0N_23  and  C0O_24 
REMARK    9  A    between atoms: C0O_24  and  N0P_25 
ROOT
ATOM      1  C02 MOL     1       3.279   5.403 -14.559  1.00  0.00    -0.044 C 
ATOM      2  C03 MOL     1       3.737   6.723 -14.669  1.00  0.00     0.129 C 
ATOM      3  C08 MOL     1       3.055   7.723 -15.472  1.00  0.00    -0.316 C 
ATOM      4  C09 MOL     1       1.837   7.389 -16.033  1.00  0.00     0.109 C 
ATOM      5  C0E MOL     1       1.368   6.107 -16.024  1.00  0.00    -0.064 C 
ATOM      6  C0N MOL     1       2.019   5.147 -15.212  1.00  0.00    -0.120 C 
ENDROOT
BRANCH   5   7
ATOM      7  C0F MOL     1       0.077   5.790 -16.762  1.00  0.00     0.047 C 
BRANCH   7   8
ATOM      8  C0G MOL     1       0.035   5.877 -18.263  1.00  0.00     0.171 C 
ATOM      9  C0M MOL     1       1.203   5.734 -19.041  1.00  0.00    -0.195 C 
ATOM     10  C0K MOL     1       1.154   5.835 -20.456  1.00  0.00    -0.062 C 
ATOM     11  C0J MOL     1      -0.000   6.255 -21.123  1.00  0.00    -0.135 C 
ATOM     12  C0I MOL     1      -1.156   6.426 -20.304  1.00  0.00    -0.071 C 
ATOM     13  C0H MOL     1      -1.098   6.188 -18.948  1.00  0.00    -0.152 C 
ENDBRANCH   7   8
ENDBRANCH   5   7
BRANCH   6  14
ATOM     14  C0O MOL     1       1.478   3.684 -15.102  1.00  0.00     0.092 C 
BRANCH  14  15
ATOM     15  N0P MOL     1       0.762   3.327 -13.836  1.00  0.00    -0.153 N 
ATOM     16  H0Q MOL     1       1.414   3.235 -13.074  1.00  0.00     0.257 HD
ATOM     17  H0R MOL     1       0.197   4.128 -13.569  1.00  0.00     0.244 HD
ATOM     18  H0S MOL     1       0.224   2.472 -13.874  1.00  0.00     0.246 HD
ENDBRANCH  14  15
ENDBRANCH   6  14
BRANCH   4  19
ATOM     19  C0A MOL     1       1.019   8.564 -16.616  1.00  0.00    -0.219 C 
BRANCH  19  20
ATOM     20  C0B MOL     1       1.730   9.956 -16.565  1.00  0.00     0.819 C 
ATOM     21  N0C MOL     1       2.353  10.342 -17.636  1.00  0.00    -0.993 N 
ATOM     22  H13 MOL     1       2.285   9.722 -18.440  1.00  0.00     0.395 HD
ATOM     23  H14 MOL     1       2.896  11.186 -17.634  1.00  0.00     0.440 HD
ATOM     24  O0D MOL     1       1.621  10.674 -15.588  1.00  0.00    -0.614 OA
ENDBRANCH  19  20
ENDBRANCH   4  19
BRANCH   1  25
ATOM     25  C01 MOL     1       4.018   4.314 -13.751  1.00  0.00    -0.066 C 
ATOM     26  C00 MOL     1       5.107   3.539 -14.638  1.00  0.00    -0.126 C 
ENDBRANCH   1  25
BRANCH   2  27
ATOM     27  C04 MOL     1       5.028   7.244 -14.079  1.00  0.00    -0.266 C 
BRANCH  27  28
ATOM     28  C05 MOL     1       4.922   8.567 -13.363  1.00  0.00     0.870 C 
ATOM     29  O06 MOL     1       4.353   8.728 -12.301  1.00  0.00    -0.820 OA
ATOM     30  O07 MOL     1       5.538   9.565 -13.870  1.00  0.00    -0.676 OA
ENDBRANCH  27  28
ENDBRANCH   2  27
TORSDOF 9
ENDMDL
MODEL 16
REMARK VINA RESULT:      -5.1      4.597      6.626
REMARK  9 active torsions:
REMARK  status: ('A' for Active; 'I' for Inactive)
REMARK    1  A    between atoms: C01_2  and  C02_3 
REMARK    2  A    between atoms: C03_4  and  C04_5 
REMARK    3  A    between atoms: C04_5  and  C05_6 
REMARK    4  A    between atoms: C09_10  and  C0A_11 
REMARK    5  A    between atoms: C0A_11  and  C0B_12 
REMARK       I    between atoms: C0B_12  and  N0C_13 
REMARK    6  A    between atoms: C0E_15  and  C0F_16 
REMARK    7  A    between atoms: C0F_16  and  C0G_17 
REMARK    8  A    between atoms: C0N_23  and  C0O_24 
REMARK    9  A    between atoms: C0O_24  and  N0P_25 
ROOT
ATOM      1  C02 MOL     1       3.938  11.191  -0.926  1.00  0.00    -0.044 C 
ATOM      2  C03 MOL     1       3.405  11.702  -2.118  1.00  0.00     0.129 C 
ATOM      3  C08 MOL     1       1.983  11.674  -2.413  1.00  0.00    -0.316 C 
ATOM      4  C09 MOL     1       1.119  11.253  -1.420  1.00  0.00     0.109 C 
ATOM      5  C0E MOL     1       1.572  10.680  -0.267  1.00  0.00    -0.064 C 
ATOM      6  C0N MOL     1       2.955  10.741   0.028  1.00  0.00    -0.120 C 
ENDROOT
BRANCH   5   7
ATOM      7  C0F MOL     1       0.562  10.134   0.730  1.00  0.00     0.047 C 
BRANCH   7   8
ATOM      8  C0G MOL     1       0.087  11.003   1.862  1.00  0.00     0.171 C 
ATOM      9  C0M MOL     1      -0.510  10.451   3.014  1.00  0.00    -0.195 C 
ATOM     10  C0K MOL     1      -0.971  11.282   4.068  1.00  0.00    -0.062 C 
ATOM     11  C0J MOL     1      -1.019  12.673   3.939  1.00  0.00    -0.135 C 
ATOM     12  C0I MOL     1      -0.439  13.201   2.746  1.00  0.00    -0.071 C 
ATOM     13  C0H MOL     1       0.118  12.361   1.805  1.00  0.00    -0.152 C 
ENDBRANCH   7   8
ENDBRANCH   5   7
BRANCH   6  14
ATOM     14  C0O MOL     1       3.518  10.172   1.371  1.00  0.00     0.092 C 
BRANCH  14  15
ATOM     15  N0P MOL     1       3.637  11.136   2.512  1.00  0.00    -0.153 N 
ATOM     16  H0Q MOL     1       4.215  10.751   3.241  1.00  0.00     0.257 HD
ATOM     17  H0R MOL     1       4.170  11.934   2.182  1.00  0.00     0.244 HD
ATOM     18  H0S MOL     1       2.761  11.407   2.937  1.00  0.00     0.246 HD
ENDBRANCH  14  15
ENDBRANCH   6  14
BRANCH   4  19
ATOM     19  C0A MOL     1      -0.382  11.525  -1.674  1.00  0.00    -0.219 C 
BRANCH  19  20
ATOM     20  C0B MOL     1      -1.100  10.480  -2.588  1.00  0.00     0.819 C 
ATOM     21  N0C MOL     1      -2.067  10.914  -3.337  1.00  0.00    -0.993 N 
ATOM     22  H13 MOL     1      -2.245  11.914  -3.301  1.00  0.00     0.395 HD
ATOM     23  H14 MOL     1      -2.617  10.274  -3.881  1.00  0.00     0.440 HD
ATOM     24  O0D MOL     1      -0.702   9.331  -2.650  1.00  0.00    -0.614 OA
ENDBRANCH  19  20
ENDBRANCH   4  19
BRANCH   1  25
ATOM     25  C01 MOL     1       5.451  11.166  -0.617  1.00  0.00    -0.066 C 
ATOM     26  C00 MOL     1       6.170   9.869  -1.227  1.00  0.00    -0.126 C 
ENDBRANCH   1  25
BRANCH   2  27
ATOM     27  C04 MOL     1       4.221  12.231  -3.275  1.00  0.00    -0.266 C 
BRANCH  27  28
ATOM     28  C05 MOL     1       4.247  11.351  -4.500  1.00  0.00     0.870 C 
ATOM     29  O06 MOL     1       4.691  10.219  -4.521  1.00  0.00    -0.820 OA
ATOM     30  O07 MOL     1       3.697  11.799  -5.562  1.00  0.00    -0.676 OA
ENDBRANCH  27  28
ENDBRANCH   2  27
TORSDOF 9
ENDMDL
MODEL 17
REMARK VINA RESULT:      -5.0      8.478     11.673
REMARK  9 active torsions:
REMARK  status: ('A' for Active; 'I' for Inactive)
REMARK    1  A    between atoms: C01_2  and  C02_3 
REMARK    2  A    between atoms: C03_4  and  C04_5 
REMARK    3  A    between atoms: C04_5  and  C05_6 
REMARK    4  A    between atoms: C09_10  and  C0A_11 
REMARK    5  A    between atoms: C0A_11  and  C0B_12 
REMARK       I    between atoms: C0B_12  and  N0C_13 
REMARK    6  A    between atoms: C0E_15  and  C0F_16 
REMARK    7  A    between atoms: C0F_16  and  C0G_17 
REMARK    8  A    between atoms: C0N_23  and  C0O_24 
REMARK    9  A    between atoms: C0O_24  and  N0P_25 
ROOT
ATOM      1  C02 MOL     1       1.108  10.589   4.433  1.00  0.00    -0.044 C 
ATOM      2  C03 MOL     1       0.581  11.372   3.396  1.00  0.00     0.129 C 
ATOM      3  C08 MOL     1      -0.627  12.163   3.551  1.00  0.00    -0.316 C 
ATOM      4  C09 MOL     1      -1.194  12.249   4.809  1.00  0.00     0.109 C 
ATOM      5  C0E MOL     1      -0.776  11.462   5.842  1.00  0.00    -0.064 C 
ATOM      6  C0N MOL     1       0.421  10.720   5.694  1.00  0.00    -0.120 C 
ENDROOT
BRANCH   5   7
ATOM      7  C0F MOL     1      -1.522  11.526   7.165  1.00  0.00     0.047 C 
BRANCH   7   8
ATOM      8  C0G MOL     1      -2.591  10.512   7.468  1.00  0.00     0.171 C 
ATOM      9  C0M MOL     1      -3.579  10.178   6.519  1.00  0.00    -0.195 C 
ATOM     10  C0K MOL     1      -4.593   9.233   6.822  1.00  0.00    -0.062 C 
ATOM     11  C0J MOL     1      -4.768   8.732   8.115  1.00  0.00    -0.135 C 
ATOM     12  C0I MOL     1      -3.773   9.116   9.063  1.00  0.00    -0.071 C 
ATOM     13  C0H MOL     1      -2.726   9.933   8.691  1.00  0.00    -0.152 C 
ENDBRANCH   7   8
ENDBRANCH   5   7
BRANCH   6  14
ATOM     14  C0O MOL     1       0.989   9.863   6.873  1.00  0.00     0.092 C 
BRANCH  14  15
ATOM     15  N0P MOL     1       1.937  10.551   7.806  1.00  0.00    -0.153 N 
ATOM     16  H0Q MOL     1       2.516  11.204   7.304  1.00  0.00     0.257 HD
ATOM     17  H0R MOL     1       1.385  11.145   8.418  1.00  0.00     0.244 HD
ATOM     18  H0S MOL     1       2.554   9.937   8.320  1.00  0.00     0.246 HD
ENDBRANCH  14  15
ENDBRANCH   6  14
BRANCH   4  19
ATOM     19  C0A MOL     1      -2.285  13.330   4.982  1.00  0.00    -0.219 C 
BRANCH  19  20
ATOM     20  C0B MOL     1      -1.754  14.762   5.318  1.00  0.00     0.819 C 
ATOM     21  N0C MOL     1      -2.457  15.769   4.897  1.00  0.00    -0.993 N 
ATOM     22  H13 MOL     1      -3.326  15.538   4.421  1.00  0.00     0.395 HD
ATOM     23  H14 MOL     1      -2.122  16.707   5.011  1.00  0.00     0.440 HD
ATOM     24  O0D MOL     1      -0.770  14.910   6.020  1.00  0.00    -0.614 OA
ENDBRANCH  19  20
ENDBRANCH   4  19
BRANCH   1  25
ATOM     25  C01 MOL     1       2.362   9.702   4.272  1.00  0.00    -0.066 C 
ATOM     26  C00 MOL     1       1.990   8.205   3.830  1.00  0.00    -0.126 C 
ENDBRANCH   1  25
BRANCH   2  27
ATOM     27  C04 MOL     1       1.115  11.410   1.983  1.00  0.00    -0.266 C 
BRANCH  27  28
ATOM     28  C05 MOL     1       0.371  10.555   0.989  1.00  0.00     0.870 C 
ATOM     29  O06 MOL     1       0.276  10.806  -0.197  1.00  0.00    -0.820 OA
ATOM     30  O07 MOL     1      -0.126   9.455   1.410  1.00  0.00    -0.676 OA
ENDBRANCH  27  28
ENDBRANCH   2  27
TORSDOF 9
ENDMDL
MODEL 18
REMARK VINA RESULT:      -4.9     13.938     17.130
REMARK  9 active torsions:
REMARK  status: ('A' for Active; 'I' for Inactive)
REMARK    1  A    between atoms: C01_2  and  C02_3 
REMARK    2  A    between atoms: C03_4  and  C04_5 
REMARK    3  A    between atoms: C04_5  and  C05_6 
REMARK    4  A    between atoms: C09_10  and  C0A_11 
REMARK    5  A    between atoms: C0A_11  and  C0B_12 
REMARK       I    between atoms: C0B_12  and  N0C_13 
REMARK    6  A    between atoms: C0E_15  and  C0F_16 
REMARK    7  A    between atoms: C0F_16  and  C0G_17 
REMARK    8  A    between atoms: C0N_23  and  C0O_24 
REMARK    9  A    between atoms: C0O_24  and  N0P_25 
ROOT
ATOM      1  C02 MOL     1      -8.147  -6.506  -0.088  1.00  0.00    -0.044 C 
ATOM      2  C03 MOL     1      -9.460  -6.042  -0.256  1.00  0.00     0.129 C 
ATOM      3  C08 MOL     1      -9.770  -4.815  -0.968  1.00  0.00    -0.316 C 
ATOM      4  C09 MOL     1      -8.742  -4.160  -1.618  1.00  0.00     0.109 C 
ATOM      5  C0E MOL     1      -7.436  -4.515  -1.440  1.00  0.00    -0.064 C 
ATOM      6  C0N MOL     1      -7.143  -5.729  -0.774  1.00  0.00    -0.120 C 
ENDROOT
BRANCH   5   7
ATOM      7  C0F MOL     1      -6.349  -3.677  -2.094  1.00  0.00     0.047 C 
BRANCH   7   8
ATOM      8  C0G MOL     1      -5.763  -4.111  -3.410  1.00  0.00     0.171 C 
ATOM      9  C0M MOL     1      -4.537  -3.594  -3.876  1.00  0.00    -0.195 C 
ATOM     10  C0K MOL     1      -4.003  -3.998  -5.128  1.00  0.00    -0.062 C 
ATOM     11  C0J MOL     1      -4.740  -4.776  -6.025  1.00  0.00    -0.135 C 
ATOM     12  C0I MOL     1      -5.993  -5.255  -5.538  1.00  0.00    -0.071 C 
ATOM     13  C0H MOL     1      -6.416  -4.946  -4.263  1.00  0.00    -0.152 C 
ENDBRANCH   7   8
ENDBRANCH   5   7
BRANCH   6  14
ATOM     14  C0O MOL     1      -5.669  -6.225  -0.612  1.00  0.00     0.092 C 
BRANCH  14  15
ATOM     15  N0P MOL     1      -5.168  -7.191  -1.641  1.00  0.00    -0.153 N 
ATOM     16  H0Q MOL     1      -5.638  -7.046  -2.520  1.00  0.00     0.257 HD
ATOM     17  H0R MOL     1      -4.204  -6.947  -1.845  1.00  0.00     0.244 HD
ATOM     18  H0S MOL     1      -5.276  -8.167  -1.402  1.00  0.00     0.246 HD
ENDBRANCH  14  15
ENDBRANCH   6  14
BRANCH   4  19
ATOM     19  C0A MOL     1      -9.169  -3.044  -2.599  1.00  0.00    -0.219 C 
BRANCH  19  20
ATOM     20  C0B MOL     1     -10.078  -3.512  -3.782  1.00  0.00     0.819 C 
ATOM     21  N0C MOL     1     -11.100  -2.767  -4.073  1.00  0.00    -0.993 N 
ATOM     22  H13 MOL     1     -11.196  -1.910  -3.534  1.00  0.00     0.395 HD
ATOM     23  H14 MOL     1     -11.764  -3.060  -4.766  1.00  0.00     0.440 HD
ATOM     24  O0D MOL     1      -9.779  -4.487  -4.447  1.00  0.00    -0.614 OA
ENDBRANCH  19  20
ENDBRANCH   4  19
BRANCH   1  25
ATOM     25  C01 MOL     1      -7.793  -7.780   0.709  1.00  0.00    -0.066 C 
ATOM     26  C00 MOL     1      -7.567  -7.474   2.267  1.00  0.00    -0.126 C 
ENDBRANCH   1  25
BRANCH   2  27
ATOM     27  C04 MOL     1     -10.686  -6.674   0.361  1.00  0.00    -0.266 C 
BRANCH  27  28
ATOM     28  C05 MOL     1     -11.258  -5.944   1.550  1.00  0.00     0.870 C 
ATOM     29  O06 MOL     1     -10.685  -5.813   2.614  1.00  0.00    -0.820 OA
ATOM     30  O07 MOL     1     -12.385  -5.361   1.401  1.00  0.00    -0.676 OA
ENDBRANCH  27  28
ENDBRANCH   2  27
TORSDOF 9
ENDMDL
MODEL 19
REMARK VINA RESULT:      -4.9      4.846      8.173
REMARK  9 active torsions:
REMARK  status: ('A' for Active; 'I' for Inactive)
REMARK    1  A    between atoms: C01_2  and  C02_3 
REMARK    2  A    between atoms: C03_4  and  C04_5 
REMARK    3  A    between atoms: C04_5  and  C05_6 
REMARK    4  A    between atoms: C09_10  and  C0A_11 
REMARK    5  A    between atoms: C0A_11  and  C0B_12 
REMARK       I    between atoms: C0B_12  and  N0C_13 
REMARK    6  A    between atoms: C0E_15  and  C0F_16 
REMARK    7  A    between atoms: C0F_16  and  C0G_17 
REMARK    8  A    between atoms: C0N_23  and  C0O_24 
REMARK    9  A    between atoms: C0O_24  and  N0P_25 
ROOT
ATOM      1  C02 MOL     1       2.458  11.295   2.083  1.00  0.00    -0.044 C 
ATOM      2  C03 MOL     1       3.648  11.033   1.390  1.00  0.00     0.129 C 
ATOM      3  C08 MOL     1       3.747  11.123  -0.057  1.00  0.00    -0.316 C 
ATOM      4  C09 MOL     1       2.662  11.619  -0.754  1.00  0.00     0.109 C 
ATOM      5  C0E MOL     1       1.454  11.828  -0.154  1.00  0.00    -0.064 C 
ATOM      6  C0N MOL     1       1.374  11.770   1.258  1.00  0.00    -0.120 C 
ENDROOT
BRANCH   5   7
ATOM      7  C0F MOL     1       0.273  12.264  -1.007  1.00  0.00     0.047 C 
BRANCH   7   8
ATOM      8  C0G MOL     1      -0.478  11.243  -1.818  1.00  0.00     0.171 C 
ATOM      9  C0M MOL     1      -0.524   9.887  -1.434  1.00  0.00    -0.195 C 
ATOM     10  C0K MOL     1      -1.221   8.930  -2.217  1.00  0.00    -0.062 C 
ATOM     11  C0J MOL     1      -1.733   9.245  -3.478  1.00  0.00    -0.135 C 
ATOM     12  C0I MOL     1      -1.640  10.618  -3.855  1.00  0.00    -0.071 C 
ATOM     13  C0H MOL     1      -1.071  11.543  -3.004  1.00  0.00    -0.152 C 
ENDBRANCH   7   8
ENDBRANCH   5   7
BRANCH   6  14
ATOM     14  C0O MOL     1       0.035  12.079   2.003  1.00  0.00     0.092 C 
BRANCH  14  15
ATOM     15  N0P MOL     1      -0.230  13.513   2.343  1.00  0.00    -0.153 N 
ATOM     16  H0Q MOL     1       0.546  14.091   2.065  1.00  0.00     0.257 HD
ATOM     17  H0R MOL     1      -0.988  13.833   1.748  1.00  0.00     0.244 HD
ATOM     18  H0S MOL     1      -0.405  13.697   3.321  1.00  0.00     0.246 HD
ENDBRANCH  14  15
ENDBRANCH   6  14
BRANCH   4  19
ATOM     19  C0A MOL     1       2.921  11.976  -2.236  1.00  0.00    -0.219 C 
BRANCH  19  20
ATOM     20  C0B MOL     1       3.216  10.757  -3.170  1.00  0.00     0.819 C 
ATOM     21  N0C MOL     1       4.429  10.631  -3.614  1.00  0.00    -0.993 N 
ATOM     22  H13 MOL     1       5.101  11.315  -3.276  1.00  0.00     0.395 HD
ATOM     23  H14 MOL     1       4.656   9.917  -4.282  1.00  0.00     0.440 HD
ATOM     24  O0D MOL     1       2.357   9.922  -3.391  1.00  0.00    -0.614 OA
ENDBRANCH  19  20
ENDBRANCH   4  19
BRANCH   1  25
ATOM     25  C01 MOL     1       2.321  11.155   3.615  1.00  0.00    -0.066 C 
ATOM     26  C00 MOL     1       1.820   9.693   4.045  1.00  0.00    -0.126 C 
ENDBRANCH   1  25
BRANCH   2  27
ATOM     27  C04 MOL     1       4.924  10.523   2.021  1.00  0.00    -0.266 C 
BRANCH  27  28
ATOM     28  C05 MOL     1       4.999   9.028   2.203  1.00  0.00     0.870 C 
ATOM     29  O06 MOL     1       5.029   8.227   1.289  1.00  0.00    -0.820 OA
ATOM     30  O07 MOL     1       5.118   8.582   3.395  1.00  0.00    -0.676 OA
ENDBRANCH  27  28
ENDBRANCH   2  27
TORSDOF 9
ENDMDL
MODEL 20
REMARK VINA RESULT:      -4.8     13.885     16.576
REMARK  9 active torsions:
REMARK  status: ('A' for Active; 'I' for Inactive)
REMARK    1  A    between atoms: C01_2  and  C02_3 
REMARK    2  A    between atoms: C03_4  and  C04_5 
REMARK    3  A    between atoms: C04_5  and  C05_6 
REMARK    4  A    between atoms: C09_10  and  C0A_11 
REMARK    5  A    between atoms: C0A_11  and  C0B_12 
REMARK       I    between atoms: C0B_12  and  N0C_13 
REMARK    6  A    between atoms: C0E_15  and  C0F_16 
REMARK    7  A    between atoms: C0F_16  and  C0G_17 
REMARK    8  A    between atoms: C0N_23  and  C0O_24 
REMARK    9  A    between atoms: C0O_24  and  N0P_25 
ROOT
ATOM      1  C02 MOL     1      -2.672   8.738 -21.722  1.00  0.00    -0.044 C 
ATOM      2  C03 MOL     1      -1.533   9.100 -22.453  1.00  0.00     0.129 C 
ATOM      3  C08 MOL     1      -0.250   8.440 -22.281  1.00  0.00    -0.316 C 
ATOM      4  C09 MOL     1      -0.195   7.325 -21.466  1.00  0.00     0.109 C 
ATOM      5  C0E MOL     1      -1.245   6.960 -20.674  1.00  0.00    -0.064 C 
ATOM      6  C0N MOL     1      -2.499   7.586 -20.871  1.00  0.00    -0.120 C 
ENDROOT
BRANCH   5   7
ATOM      7  C0F MOL     1      -1.073   5.792 -19.716  1.00  0.00     0.047 C 
BRANCH   7   8
ATOM      8  C0G MOL     1      -0.373   6.003 -18.400  1.00  0.00     0.171 C 
ATOM      9  C0M MOL     1      -0.275   7.283 -17.817  1.00  0.00    -0.195 C 
ATOM     10  C0K MOL     1       0.403   7.472 -16.584  1.00  0.00    -0.062 C 
ATOM     11  C0J MOL     1       1.149   6.451 -15.990  1.00  0.00    -0.135 C 
ATOM     12  C0I MOL     1       1.058   5.175 -16.624  1.00  0.00    -0.071 C 
ATOM     13  C0H MOL     1       0.279   5.004 -17.749  1.00  0.00    -0.152 C 
ENDBRANCH   7   8
ENDBRANCH   5   7
BRANCH   6  14
ATOM     14  C0O MOL     1      -3.755   7.151 -20.046  1.00  0.00     0.092 C 
BRANCH  14  15
ATOM     15  N0P MOL     1      -4.600   6.063 -20.634  1.00  0.00    -0.153 N 
ATOM     16  H0Q MOL     1      -4.618   5.261 -20.025  1.00  0.00     0.257 HD
ATOM     17  H0R MOL     1      -5.563   6.387 -20.627  1.00  0.00     0.244 HD
ATOM     18  H0S MOL     1      -4.310   5.740 -21.546  1.00  0.00     0.246 HD
ENDBRANCH  14  15
ENDBRANCH   6  14
BRANCH   4  19
ATOM     19  C0A MOL     1       1.104   6.491 -21.554  1.00  0.00    -0.219 C 
BRANCH  19  20
ATOM     20  C0B MOL     1       2.396   7.223 -21.067  1.00  0.00     0.819 C 
ATOM     21  N0C MOL     1       2.700   7.116 -19.810  1.00  0.00    -0.993 N 
ATOM     22  H13 MOL     1       2.093   6.519 -19.253  1.00  0.00     0.395 HD
ATOM     23  H14 MOL     1       3.470   7.631 -19.425  1.00  0.00     0.440 HD
ATOM     24  O0D MOL     1       3.124   7.793 -21.860  1.00  0.00    -0.614 OA
ENDBRANCH  19  20
ENDBRANCH   4  19
BRANCH   1  25
ATOM     25  C01 MOL     1      -4.030   9.461 -21.854  1.00  0.00    -0.066 C 
ATOM     26  C00 MOL     1      -4.889   8.911 -23.092  1.00  0.00    -0.126 C 
ENDBRANCH   1  25
BRANCH   2  27
ATOM     27  C04 MOL     1      -1.453  10.269 -23.408  1.00  0.00    -0.266 C 
BRANCH  27  28
ATOM     28  C05 MOL     1      -1.295  11.622 -22.760  1.00  0.00     0.870 C 
ATOM     29  O06 MOL     1      -2.161  12.474 -22.735  1.00  0.00    -0.820 OA
ATOM     30  O07 MOL     1      -0.208  11.853 -22.130  1.00  0.00    -0.676 OA
ENDBRANCH  27  28
ENDBRANCH   2  27
TORSDOF 9
ENDMDL
