MODEL 1
REMARK VINA RESULT:      -6.4      0.000      0.000
REMARK  9 active torsions:
REMARK  status: ('A' for Active; 'I' for Inactive)
REMARK    1  A    between atoms: C01_2  and  C02_3 
REMARK    2  A    between atoms: C03_4  and  C04_5 
REMARK    3  A    between atoms: C04_5  and  C05_6 
REMARK    4  A    between atoms: C09_10  and  C0A_11 
REMARK    5  A    between atoms: C0A_11  and  C0B_12 
REMARK       I    between atoms: C0B_12  and  N0C_13 
REMARK    6  A    between atoms: C0E_15  and  C0F_16 
REMARK    7  A    between atoms: C0F_16  and  C0G_17 
REMARK    8  A    between atoms: C0N_23  and  C0O_24 
REMARK    9  A    between atoms: C0O_24  and  N0P_25 
ROOT
ATOM      1  C02 MOL     1       2.134  11.213  -1.643  1.00  0.00    -0.044 C 
ATOM      2  C03 MOL     1       0.840  11.456  -1.162  1.00  0.00     0.129 C 
ATOM      3  C08 MOL     1      -0.340  11.344  -2.002  1.00  0.00    -0.316 C 
ATOM      4  C09 MOL     1      -0.184  10.846  -3.282  1.00  0.00     0.109 C 
ATOM      5  C0E MOL     1       1.049  10.655  -3.835  1.00  0.00    -0.064 C 
ATOM      6  C0N MOL     1       2.190  10.734  -3.002  1.00  0.00    -0.120 C 
ENDROOT
BRANCH   5   7
ATOM      7  C0F MOL     1       1.144  10.216  -5.287  1.00  0.00     0.047 C 
BRANCH   7   8
ATOM      8  C0G MOL     1       1.349  11.245  -6.366  1.00  0.00     0.171 C 
ATOM      9  C0M MOL     1       0.297  12.077  -6.799  1.00  0.00    -0.195 C 
ATOM     10  C0K MOL     1       0.498  13.032  -7.829  1.00  0.00    -0.062 C 
ATOM     11  C0J MOL     1       1.679  13.070  -8.577  1.00  0.00    -0.135 C 
ATOM     12  C0I MOL     1       2.713  12.190  -8.136  1.00  0.00    -0.071 C 
ATOM     13  C0H MOL     1       2.521  11.370  -7.045  1.00  0.00    -0.152 C 
ENDBRANCH   7   8
ENDBRANCH   5   7
BRANCH   6  14
ATOM     14  C0O MOL     1       3.621  10.447  -3.566  1.00  0.00     0.092 C 
BRANCH  14  15
ATOM     15  N0P MOL     1       4.381  11.623  -4.097  1.00  0.00    -0.153 N 
ATOM     16  H0Q MOL     1       5.273  11.705  -3.637  1.00  0.00     0.257 HD
ATOM     17  H0R MOL     1       4.629  11.416  -5.060  1.00  0.00     0.244 HD
ATOM     18  H0S MOL     1       3.913  12.514  -4.004  1.00  0.00     0.246 HD
ENDBRANCH  14  15
ENDBRANCH   6  14
BRANCH   4  19
ATOM     19  C0A MOL     1      -1.489  10.465  -4.019  1.00  0.00    -0.219 C 
BRANCH  19  20
ATOM     20  C0B MOL     1      -1.856   8.946  -3.977  1.00  0.00     0.819 C 
ATOM     21  N0C MOL     1      -1.978   8.335  -5.116  1.00  0.00    -0.993 N 
ATOM     22  H13 MOL     1      -1.776   8.890  -5.944  1.00  0.00     0.395 HD
ATOM     23  H14 MOL     1      -2.293   7.383  -5.152  1.00  0.00     0.440 HD
ATOM     24  O0D MOL     1      -1.935   8.355  -2.916  1.00  0.00    -0.614 OA
ENDBRANCH  19  20
ENDBRANCH   4  19
BRANCH   1  25
ATOM     25  C01 MOL     1       3.404  11.377  -0.779  1.00  0.00    -0.066 C 
ATOM     26  C00 MOL     1       3.689  10.083   0.126  1.00  0.00    -0.126 C 
ENDBRANCH   1  25
BRANCH   2  27
ATOM     27  C04 MOL     1       0.512  11.966   0.223  1.00  0.00    -0.266 C 
BRANCH  27  28
ATOM     28  C05 MOL     1       0.650  13.456   0.411  1.00  0.00     0.870 C 
ATOM     29  O06 MOL     1       1.654  14.004   0.823  1.00  0.00    -0.820 OA
ATOM     30  O07 MOL     1      -0.325  14.192   0.038  1.00  0.00    -0.676 OA
ENDBRANCH  27  28
ENDBRANCH   2  27
TORSDOF 9
ENDMDL
MODEL 2
REMARK VINA RESULT:      -6.3      3.376      6.691
REMARK  9 active torsions:
REMARK  status: ('A' for Active; 'I' for Inactive)
REMARK    1  A    between atoms: C01_2  and  C02_3 
REMARK    2  A    between atoms: C03_4  and  C04_5 
REMARK    3  A    between atoms: C04_5  and  C05_6 
REMARK    4  A    between atoms: C09_10  and  C0A_11 
REMARK    5  A    between atoms: C0A_11  and  C0B_12 
REMARK       I    between atoms: C0B_12  and  N0C_13 
REMARK    6  A    between atoms: C0E_15  and  C0F_16 
REMARK    7  A    between atoms: C0F_16  and  C0G_17 
REMARK    8  A    between atoms: C0N_23  and  C0O_24 
REMARK    9  A    between atoms: C0O_24  and  N0P_25 
ROOT
ATOM      1  C02 MOL     1       1.914   7.609  -6.379  1.00  0.00    -0.044 C 
ATOM      2  C03 MOL     1       1.397   6.459  -5.767  1.00  0.00     0.129 C 
ATOM      3  C08 MOL     1       0.437   6.517  -4.679  1.00  0.00    -0.316 C 
ATOM      4  C09 MOL     1      -0.085   7.750  -4.335  1.00  0.00     0.109 C 
ATOM      5  C0E MOL     1       0.422   8.912  -4.840  1.00  0.00    -0.064 C 
ATOM      6  C0N MOL     1       1.333   8.847  -5.922  1.00  0.00    -0.120 C 
ENDROOT
BRANCH   5   7
ATOM      7  C0F MOL     1      -0.122  10.237  -4.328  1.00  0.00     0.047 C 
BRANCH   7   8
ATOM      8  C0G MOL     1       0.470  10.859  -3.092  1.00  0.00     0.171 C 
ATOM      9  C0M MOL     1      -0.346  11.342  -2.049  1.00  0.00    -0.195 C 
ATOM     10  C0K MOL     1       0.224  11.943  -0.896  1.00  0.00    -0.062 C 
ATOM     11  C0J MOL     1       1.586  12.243  -0.820  1.00  0.00    -0.135 C 
ATOM     12  C0I MOL     1       2.381  11.772  -1.908  1.00  0.00    -0.071 C 
ATOM     13  C0H MOL     1       1.805  11.075  -2.949  1.00  0.00    -0.152 C 
ENDBRANCH   7   8
ENDBRANCH   5   7
BRANCH   6  14
ATOM     14  C0O MOL     1       1.884  10.149  -6.591  1.00  0.00     0.092 C 
BRANCH  14  15
ATOM     15  N0P MOL     1       1.137  10.657  -7.786  1.00  0.00    -0.153 N 
ATOM     16  H0Q MOL     1       1.469  10.214  -8.626  1.00  0.00     0.257 HD
ATOM     17  H0R MOL     1       0.178  10.330  -7.708  1.00  0.00     0.244 HD
ATOM     18  H0S MOL     1       1.192  11.655  -7.933  1.00  0.00     0.246 HD
ENDBRANCH  14  15
ENDBRANCH   6  14
BRANCH   4  19
ATOM     19  C0A MOL     1      -1.309   7.724  -3.392  1.00  0.00    -0.219 C 
BRANCH  19  20
ATOM     20  C0B MOL     1      -2.577   7.015  -3.970  1.00  0.00     0.819 C 
ATOM     21  N0C MOL     1      -2.846   5.825  -3.527  1.00  0.00    -0.993 N 
ATOM     22  H13 MOL     1      -2.230   5.471  -2.799  1.00  0.00     0.395 HD
ATOM     23  H14 MOL     1      -3.597   5.291  -3.922  1.00  0.00     0.440 HD
ATOM     24  O0D MOL     1      -3.320   7.601  -4.738  1.00  0.00    -0.614 OA
ENDBRANCH  19  20
ENDBRANCH   4  19
BRANCH   1  25
ATOM     25  C01 MOL     1       2.973   7.568  -7.502  1.00  0.00    -0.066 C 
ATOM     26  C00 MOL     1       2.308   7.412  -8.954  1.00  0.00    -0.126 C 
ENDBRANCH   1  25
BRANCH   2  27
ATOM     27  C04 MOL     1       1.841   5.045  -6.066  1.00  0.00    -0.266 C 
BRANCH  27  28
ATOM     28  C05 MOL     1       0.863   4.217  -6.861  1.00  0.00     0.870 C 
ATOM     29  O06 MOL     1      -0.000   3.516  -6.369  1.00  0.00    -0.820 OA
ATOM     30  O07 MOL     1       0.896   4.322  -8.134  1.00  0.00    -0.676 OA
ENDBRANCH  27  28
ENDBRANCH   2  27
TORSDOF 9
ENDMDL
MODEL 3
REMARK VINA RESULT:      -6.0      4.034      6.760
REMARK  9 active torsions:
REMARK  status: ('A' for Active; 'I' for Inactive)
REMARK    1  A    between atoms: C01_2  and  C02_3 
REMARK    2  A    between atoms: C03_4  and  C04_5 
REMARK    3  A    between atoms: C04_5  and  C05_6 
REMARK    4  A    between atoms: C09_10  and  C0A_11 
REMARK    5  A    between atoms: C0A_11  and  C0B_12 
REMARK       I    between atoms: C0B_12  and  N0C_13 
REMARK    6  A    between atoms: C0E_15  and  C0F_16 
REMARK    7  A    between atoms: C0F_16  and  C0G_17 
REMARK    8  A    between atoms: C0N_23  and  C0O_24 
REMARK    9  A    between atoms: C0O_24  and  N0P_25 
ROOT
ATOM      1  C02 MOL     1       1.627   6.277  -3.428  1.00  0.00    -0.044 C 
ATOM      2  C03 MOL     1       0.342   5.738  -3.580  1.00  0.00     0.129 C 
ATOM      3  C08 MOL     1      -0.864   6.529  -3.405  1.00  0.00    -0.316 C 
ATOM      4  C09 MOL     1      -0.727   7.892  -3.219  1.00  0.00     0.109 C 
ATOM      5  C0E MOL     1       0.488   8.470  -2.994  1.00  0.00    -0.064 C 
ATOM      6  C0N MOL     1       1.659   7.701  -3.198  1.00  0.00    -0.120 C 
ENDROOT
BRANCH   5   7
ATOM      7  C0F MOL     1       0.550   9.957  -2.681  1.00  0.00     0.047 C 
BRANCH   7   8
ATOM      8  C0G MOL     1       0.432  10.424  -1.256  1.00  0.00     0.171 C 
ATOM      9  C0M MOL     1       0.450  11.796  -0.928  1.00  0.00    -0.195 C 
ATOM     10  C0K MOL     1       0.356  12.224   0.422  1.00  0.00    -0.062 C 
ATOM     11  C0J MOL     1       0.421  11.321   1.487  1.00  0.00    -0.135 C 
ATOM     12  C0I MOL     1       0.438   9.941   1.122  1.00  0.00    -0.071 C 
ATOM     13  C0H MOL     1       0.395   9.564  -0.204  1.00  0.00    -0.152 C 
ENDBRANCH   7   8
ENDBRANCH   5   7
BRANCH   6  14
ATOM     14  C0O MOL     1       3.079   8.334  -3.032  1.00  0.00     0.092 C 
BRANCH  14  15
ATOM     15  N0P MOL     1       3.643   8.361  -1.645  1.00  0.00    -0.153 N 
ATOM     16  H0Q MOL     1       4.140   7.507  -1.449  1.00  0.00     0.257 HD
ATOM     17  H0R MOL     1       4.371   9.069  -1.626  1.00  0.00     0.244 HD
ATOM     18  H0S MOL     1       2.964   8.487  -0.908  1.00  0.00     0.246 HD
ENDBRANCH  14  15
ENDBRANCH   6  14
BRANCH   4  19
ATOM     19  C0A MOL     1      -2.027   8.720  -3.340  1.00  0.00    -0.219 C 
BRANCH  19  20
ATOM     20  C0B MOL     1      -2.751   8.621  -4.723  1.00  0.00     0.819 C 
ATOM     21  N0C MOL     1      -2.294   7.749  -5.569  1.00  0.00    -0.993 N 
ATOM     22  H13 MOL     1      -1.528   7.167  -5.240  1.00  0.00     0.395 HD
ATOM     23  H14 MOL     1      -2.666   7.699  -6.500  1.00  0.00     0.440 HD
ATOM     24  O0D MOL     1      -3.752   9.276  -4.948  1.00  0.00    -0.614 OA
ENDBRANCH  19  20
ENDBRANCH   4  19
BRANCH   1  25
ATOM     25  C01 MOL     1       2.918   5.440  -3.560  1.00  0.00    -0.066 C 
ATOM     26  C00 MOL     1       3.364   5.255  -5.090  1.00  0.00    -0.126 C 
ENDBRANCH   1  25
BRANCH   2  27
ATOM     27  C04 MOL     1       0.039   4.277  -3.823  1.00  0.00    -0.266 C 
BRANCH  27  28
ATOM     28  C05 MOL     1      -0.267   3.912  -5.254  1.00  0.00     0.870 C 
ATOM     29  O06 MOL     1       0.089   4.563  -6.218  1.00  0.00    -0.820 OA
ATOM     30  O07 MOL     1      -0.872   2.808  -5.467  1.00  0.00    -0.676 OA
ENDBRANCH  27  28
ENDBRANCH   2  27
TORSDOF 9
ENDMDL
MODEL 4
REMARK VINA RESULT:      -6.0      1.446      2.309
REMARK  9 active torsions:
REMARK  status: ('A' for Active; 'I' for Inactive)
REMARK    1  A    between atoms: C01_2  and  C02_3 
REMARK    2  A    between atoms: C03_4  and  C04_5 
REMARK    3  A    between atoms: C04_5  and  C05_6 
REMARK    4  A    between atoms: C09_10  and  C0A_11 
REMARK    5  A    between atoms: C0A_11  and  C0B_12 
REMARK       I    between atoms: C0B_12  and  N0C_13 
REMARK    6  A    between atoms: C0E_15  and  C0F_16 
REMARK    7  A    between atoms: C0F_16  and  C0G_17 
REMARK    8  A    between atoms: C0N_23  and  C0O_24 
REMARK    9  A    between atoms: C0O_24  and  N0P_25 
ROOT
ATOM      1  C02 MOL     1       2.101  11.423  -1.923  1.00  0.00    -0.044 C 
ATOM      2  C03 MOL     1       0.856  11.584  -1.300  1.00  0.00     0.129 C 
ATOM      3  C08 MOL     1      -0.398  11.511  -2.029  1.00  0.00    -0.316 C 
ATOM      4  C09 MOL     1      -0.359  11.131  -3.357  1.00  0.00     0.109 C 
ATOM      5  C0E MOL     1       0.817  11.027  -4.041  1.00  0.00    -0.064 C 
ATOM      6  C0N MOL     1       2.034  11.066  -3.319  1.00  0.00    -0.120 C 
ENDROOT
BRANCH   5   7
ATOM      7  C0F MOL     1       0.778  10.719  -5.530  1.00  0.00     0.047 C 
BRANCH   7   8
ATOM      8  C0G MOL     1       1.219   9.369  -6.024  1.00  0.00     0.171 C 
ATOM      9  C0M MOL     1       0.995   8.199  -5.268  1.00  0.00    -0.195 C 
ATOM     10  C0K MOL     1       1.432   6.933  -5.737  1.00  0.00    -0.062 C 
ATOM     11  C0J MOL     1       2.250   6.808  -6.863  1.00  0.00    -0.135 C 
ATOM     12  C0I MOL     1       2.489   8.014  -7.587  1.00  0.00    -0.071 C 
ATOM     13  C0H MOL     1       1.934   9.205  -7.169  1.00  0.00    -0.152 C 
ENDBRANCH   7   8
ENDBRANCH   5   7
BRANCH   6  14
ATOM     14  C0O MOL     1       3.407  10.872  -4.041  1.00  0.00     0.092 C 
BRANCH  14  15
ATOM     15  N0P MOL     1       3.978  12.073  -4.730  1.00  0.00    -0.153 N 
ATOM     16  H0Q MOL     1       4.907  12.267  -4.391  1.00  0.00     0.257 HD
ATOM     17  H0R MOL     1       4.128  11.824  -5.703  1.00  0.00     0.244 HD
ATOM     18  H0S MOL     1       3.440  12.922  -4.629  1.00  0.00     0.246 HD
ENDBRANCH  14  15
ENDBRANCH   6  14
BRANCH   4  19
ATOM     19  C0A MOL     1      -1.722  10.779  -3.996  1.00  0.00    -0.219 C 
BRANCH  19  20
ATOM     20  C0B MOL     1      -2.130   9.273  -3.900  1.00  0.00     0.819 C 
ATOM     21  N0C MOL     1      -2.568   8.707  -4.983  1.00  0.00    -0.993 N 
ATOM     22  H13 MOL     1      -2.563   9.284  -5.821  1.00  0.00     0.395 HD
ATOM     23  H14 MOL     1      -2.922   7.768  -4.961  1.00  0.00     0.440 HD
ATOM     24  O0D MOL     1      -1.958   8.647  -2.869  1.00  0.00    -0.614 OA
ENDBRANCH  19  20
ENDBRANCH   4  19
BRANCH   1  25
ATOM     25  C01 MOL     1       3.446  11.547  -1.174  1.00  0.00    -0.066 C 
ATOM     26  C00 MOL     1       3.839  10.193  -0.410  1.00  0.00    -0.126 C 
ENDBRANCH   1  25
BRANCH   2  27
ATOM     27  C04 MOL     1       0.656  11.961   0.151  1.00  0.00    -0.266 C 
BRANCH  27  28
ATOM     28  C05 MOL     1       0.728  13.437   0.449  1.00  0.00     0.870 C 
ATOM     29  O06 MOL     1       1.721  14.005   0.860  1.00  0.00    -0.820 OA
ATOM     30  O07 MOL     1      -0.299  14.147   0.178  1.00  0.00    -0.676 OA
ENDBRANCH  27  28
ENDBRANCH   2  27
TORSDOF 9
ENDMDL
MODEL 5
REMARK VINA RESULT:      -5.9      2.386      3.467
REMARK  9 active torsions:
REMARK  status: ('A' for Active; 'I' for Inactive)
REMARK    1  A    between atoms: C01_2  and  C02_3 
REMARK    2  A    between atoms: C03_4  and  C04_5 
REMARK    3  A    between atoms: C04_5  and  C05_6 
REMARK    4  A    between atoms: C09_10  and  C0A_11 
REMARK    5  A    between atoms: C0A_11  and  C0B_12 
REMARK       I    between atoms: C0B_12  and  N0C_13 
REMARK    6  A    between atoms: C0E_15  and  C0F_16 
REMARK    7  A    between atoms: C0F_16  and  C0G_17 
REMARK    8  A    between atoms: C0N_23  and  C0O_24 
REMARK    9  A    between atoms: C0O_24  and  N0P_25 
ROOT
ATOM      1  C02 MOL     1       2.099  10.372  -0.890  1.00  0.00    -0.044 C 
ATOM      2  C03 MOL     1       0.946  11.162  -0.782  1.00  0.00     0.129 C 
ATOM      3  C08 MOL     1       0.056  11.405  -1.904  1.00  0.00    -0.316 C 
ATOM      4  C09 MOL     1       0.287  10.716  -3.080  1.00  0.00     0.109 C 
ATOM      5  C0E MOL     1       1.425   9.988  -3.276  1.00  0.00    -0.064 C 
ATOM      6  C0N MOL     1       2.269   9.729  -2.170  1.00  0.00    -0.120 C 
ENDROOT
BRANCH   5   7
ATOM      7  C0F MOL     1       1.667   9.353  -4.636  1.00  0.00     0.047 C 
BRANCH   7   8
ATOM      8  C0G MOL     1       1.222   7.938  -4.888  1.00  0.00     0.171 C 
ATOM      9  C0M MOL     1       1.414   7.318  -6.140  1.00  0.00    -0.195 C 
ATOM     10  C0K MOL     1       0.974   5.989  -6.371  1.00  0.00    -0.062 C 
ATOM     11  C0J MOL     1       0.183   5.304  -5.445  1.00  0.00    -0.135 C 
ATOM     12  C0I MOL     1      -0.023   5.972  -4.200  1.00  0.00    -0.071 C 
ATOM     13  C0H MOL     1       0.535   7.211  -3.967  1.00  0.00    -0.152 C 
ENDBRANCH   7   8
ENDBRANCH   5   7
BRANCH   6  14
ATOM     14  C0O MOL     1       3.543   8.835  -2.320  1.00  0.00     0.092 C 
BRANCH  14  15
ATOM     15  N0P MOL     1       3.391   7.385  -1.973  1.00  0.00    -0.153 N 
ATOM     16  H0Q MOL     1       3.912   7.164  -1.140  1.00  0.00     0.257 HD
ATOM     17  H0R MOL     1       2.425   7.238  -1.695  1.00  0.00     0.244 HD
ATOM     18  H0S MOL     1       3.687   6.739  -2.691  1.00  0.00     0.246 HD
ENDBRANCH  14  15
ENDBRANCH   6  14
BRANCH   4  19
ATOM     19  C0A MOL     1      -0.847  10.777  -4.129  1.00  0.00    -0.219 C 
BRANCH  19  20
ATOM     20  C0B MOL     1      -2.142   9.985  -3.753  1.00  0.00     0.819 C 
ATOM     21  N0C MOL     1      -3.208  10.227  -4.452  1.00  0.00    -0.993 N 
ATOM     22  H13 MOL     1      -3.098  10.882  -5.222  1.00  0.00     0.395 HD
ATOM     23  H14 MOL     1      -4.087   9.812  -4.202  1.00  0.00     0.440 HD
ATOM     24  O0D MOL     1      -2.114   9.119  -2.897  1.00  0.00    -0.614 OA
ENDBRANCH  19  20
ENDBRANCH   4  19
BRANCH   1  25
ATOM     25  C01 MOL     1       3.083  10.145   0.278  1.00  0.00    -0.066 C 
ATOM     26  C00 MOL     1       4.225  11.270   0.332  1.00  0.00    -0.126 C 
ENDBRANCH   1  25
BRANCH   2  27
ATOM     27  C04 MOL     1       0.543  11.942   0.449  1.00  0.00    -0.266 C 
BRANCH  27  28
ATOM     28  C05 MOL     1       0.718  13.437   0.350  1.00  0.00     0.870 C 
ATOM     29  O06 MOL     1       1.793  14.005   0.382  1.00  0.00    -0.820 OA
ATOM     30  O07 MOL     1      -0.326  14.143   0.142  1.00  0.00    -0.676 OA
ENDBRANCH  27  28
ENDBRANCH   2  27
TORSDOF 9
ENDMDL
MODEL 6
REMARK VINA RESULT:      -5.9      3.073      5.365
REMARK  9 active torsions:
REMARK  status: ('A' for Active; 'I' for Inactive)
REMARK    1  A    between atoms: C01_2  and  C02_3 
REMARK    2  A    between atoms: C03_4  and  C04_5 
REMARK    3  A    between atoms: C04_5  and  C05_6 
REMARK    4  A    between atoms: C09_10  and  C0A_11 
REMARK    5  A    between atoms: C0A_11  and  C0B_12 
REMARK       I    between atoms: C0B_12  and  N0C_13 
REMARK    6  A    between atoms: C0E_15  and  C0F_16 
REMARK    7  A    between atoms: C0F_16  and  C0G_17 
REMARK    8  A    between atoms: C0N_23  and  C0O_24 
REMARK    9  A    between atoms: C0O_24  and  N0P_25 
ROOT
ATOM      1  C02 MOL     1       0.735  11.003  -2.376  1.00  0.00    -0.044 C 
ATOM      2  C03 MOL     1       2.047  11.149  -2.847  1.00  0.00     0.129 C 
ATOM      3  C08 MOL     1       2.560  10.397  -3.979  1.00  0.00    -0.316 C 
ATOM      4  C09 MOL     1       1.675   9.613  -4.696  1.00  0.00     0.109 C 
ATOM      5  C0E MOL     1       0.407   9.371  -4.253  1.00  0.00    -0.064 C 
ATOM      6  C0N MOL     1      -0.096  10.132  -3.171  1.00  0.00    -0.120 C 
ENDROOT
BRANCH   5   7
ATOM      7  C0F MOL     1      -0.473   8.406  -5.032  1.00  0.00     0.047 C 
BRANCH   7   8
ATOM      8  C0G MOL     1      -0.486   6.947  -4.663  1.00  0.00     0.171 C 
ATOM      9  C0M MOL     1      -1.355   6.446  -3.673  1.00  0.00    -0.195 C 
ATOM     10  C0K MOL     1      -1.346   5.071  -3.321  1.00  0.00    -0.062 C 
ATOM     11  C0J MOL     1      -0.369   4.196  -3.801  1.00  0.00    -0.135 C 
ATOM     12  C0I MOL     1       0.520   4.741  -4.777  1.00  0.00    -0.071 C 
ATOM     13  C0H MOL     1       0.391   6.051  -5.189  1.00  0.00    -0.152 C 
ENDBRANCH   7   8
ENDBRANCH   5   7
BRANCH   6  14
ATOM     14  C0O MOL     1      -1.568   9.953  -2.674  1.00  0.00     0.092 C 
BRANCH  14  15
ATOM     15  N0P MOL     1      -2.628  10.684  -3.439  1.00  0.00    -0.153 N 
ATOM     16  H0Q MOL     1      -3.204  10.037  -3.952  1.00  0.00     0.257 HD
ATOM     17  H0R MOL     1      -3.269  11.088  -2.762  1.00  0.00     0.244 HD
ATOM     18  H0S MOL     1      -2.286  11.368  -4.100  1.00  0.00     0.246 HD
ENDBRANCH  14  15
ENDBRANCH   6  14
BRANCH   4  19
ATOM     19  C0A MOL     1       2.194   9.080  -6.051  1.00  0.00    -0.219 C 
BRANCH  19  20
ATOM     20  C0B MOL     1       2.292  10.146  -7.190  1.00  0.00     0.819 C 
ATOM     21  N0C MOL     1       1.198  10.434  -7.827  1.00  0.00    -0.993 N 
ATOM     22  H13 MOL     1       0.354   9.972  -7.496  1.00  0.00     0.395 HD
ATOM     23  H14 MOL     1       1.216  11.047  -8.621  1.00  0.00     0.440 HD
ATOM     24  O0D MOL     1       3.336  10.736  -7.401  1.00  0.00    -0.614 OA
ENDBRANCH  19  20
ENDBRANCH   4  19
BRANCH   1  25
ATOM     25  C01 MOL     1       0.188  11.756  -1.143  1.00  0.00    -0.066 C 
ATOM     26  C00 MOL     1       0.340  10.899   0.204  1.00  0.00    -0.126 C 
ENDBRANCH   1  25
BRANCH   2  27
ATOM     27  C04 MOL     1       3.112  11.999  -2.192  1.00  0.00    -0.266 C 
BRANCH  27  28
ATOM     28  C05 MOL     1       3.914  11.310  -1.116  1.00  0.00     0.870 C 
ATOM     29  O06 MOL     1       3.715  11.441   0.076  1.00  0.00    -0.820 OA
ATOM     30  O07 MOL     1       4.809  10.477  -1.487  1.00  0.00    -0.676 OA
ENDBRANCH  27  28
ENDBRANCH   2  27
TORSDOF 9
ENDMDL
MODEL 7
REMARK VINA RESULT:      -5.9      3.726      7.144
REMARK  9 active torsions:
REMARK  status: ('A' for Active; 'I' for Inactive)
REMARK    1  A    between atoms: C01_2  and  C02_3 
REMARK    2  A    between atoms: C03_4  and  C04_5 
REMARK    3  A    between atoms: C04_5  and  C05_6 
REMARK    4  A    between atoms: C09_10  and  C0A_11 
REMARK    5  A    between atoms: C0A_11  and  C0B_12 
REMARK       I    between atoms: C0B_12  and  N0C_13 
REMARK    6  A    between atoms: C0E_15  and  C0F_16 
REMARK    7  A    between atoms: C0F_16  and  C0G_17 
REMARK    8  A    between atoms: C0N_23  and  C0O_24 
REMARK    9  A    between atoms: C0O_24  and  N0P_25 
ROOT
ATOM      1  C02 MOL     1       1.064   6.437  -4.530  1.00  0.00    -0.044 C 
ATOM      2  C03 MOL     1       1.692   6.578  -5.776  1.00  0.00     0.129 C 
ATOM      3  C08 MOL     1       1.672   7.823  -6.525  1.00  0.00    -0.316 C 
ATOM      4  C09 MOL     1       1.133   8.941  -5.917  1.00  0.00     0.109 C 
ATOM      5  C0E MOL     1       0.447   8.860  -4.740  1.00  0.00    -0.064 C 
ATOM      6  C0N MOL     1       0.498   7.654  -4.001  1.00  0.00    -0.120 C 
ENDROOT
BRANCH   5   7
ATOM      7  C0F MOL     1      -0.220  10.110  -4.189  1.00  0.00     0.047 C 
BRANCH   7   8
ATOM      8  C0G MOL     1       0.441  10.879  -3.077  1.00  0.00     0.171 C 
ATOM      9  C0M MOL     1       1.839  11.063  -3.039  1.00  0.00    -0.195 C 
ATOM     10  C0K MOL     1       2.452  11.775  -1.976  1.00  0.00    -0.062 C 
ATOM     11  C0J MOL     1       1.735  12.166  -0.842  1.00  0.00    -0.135 C 
ATOM     12  C0I MOL     1       0.327  11.935  -0.895  1.00  0.00    -0.071 C 
ATOM     13  C0H MOL     1      -0.248  11.358  -2.007  1.00  0.00    -0.152 C 
ENDBRANCH   7   8
ENDBRANCH   5   7
BRANCH   6  14
ATOM     14  C0O MOL     1      -0.203   7.530  -2.609  1.00  0.00     0.092 C 
BRANCH  14  15
ATOM     15  N0P MOL     1      -1.662   7.190  -2.620  1.00  0.00    -0.153 N 
ATOM     16  H0Q MOL     1      -1.882   6.601  -3.406  1.00  0.00     0.257 HD
ATOM     17  H0R MOL     1      -1.841   6.592  -1.819  1.00  0.00     0.244 HD
ATOM     18  H0S MOL     1      -2.287   7.983  -2.656  1.00  0.00     0.246 HD
ENDBRANCH  14  15
ENDBRANCH   6  14
BRANCH   4  19
ATOM     19  C0A MOL     1       1.407  10.288  -6.623  1.00  0.00    -0.219 C 
BRANCH  19  20
ATOM     20  C0B MOL     1       2.913  10.592  -6.913  1.00  0.00     0.819 C 
ATOM     21  N0C MOL     1       3.257  10.753  -8.154  1.00  0.00    -0.993 N 
ATOM     22  H13 MOL     1       2.502  10.714  -8.835  1.00  0.00     0.395 HD
ATOM     23  H14 MOL     1       4.222  10.867  -8.405  1.00  0.00     0.440 HD
ATOM     24  O0D MOL     1       3.700  10.755  -5.998  1.00  0.00    -0.614 OA
ENDBRANCH  19  20
ENDBRANCH   4  19
BRANCH   1  25
ATOM     25  C01 MOL     1       1.031   5.108  -3.744  1.00  0.00    -0.066 C 
ATOM     26  C00 MOL     1      -0.231   4.203  -4.143  1.00  0.00    -0.126 C 
ENDBRANCH   1  25
BRANCH   2  27
ATOM     27  C04 MOL     1       2.355   5.457  -6.543  1.00  0.00    -0.266 C 
BRANCH  27  28
ATOM     28  C05 MOL     1       1.541   4.880  -7.674  1.00  0.00     0.870 C 
ATOM     29  O06 MOL     1       0.510   4.253  -7.525  1.00  0.00    -0.820 OA
ATOM     30  O07 MOL     1       1.921   5.134  -8.867  1.00  0.00    -0.676 OA
ENDBRANCH  27  28
ENDBRANCH   2  27
TORSDOF 9
ENDMDL
MODEL 8
REMARK VINA RESULT:      -5.8      3.881      5.778
REMARK  9 active torsions:
REMARK  status: ('A' for Active; 'I' for Inactive)
REMARK    1  A    between atoms: C01_2  and  C02_3 
REMARK    2  A    between atoms: C03_4  and  C04_5 
REMARK    3  A    between atoms: C04_5  and  C05_6 
REMARK    4  A    between atoms: C09_10  and  C0A_11 
REMARK    5  A    between atoms: C0A_11  and  C0B_12 
REMARK       I    between atoms: C0B_12  and  N0C_13 
REMARK    6  A    between atoms: C0E_15  and  C0F_16 
REMARK    7  A    between atoms: C0F_16  and  C0G_17 
REMARK    8  A    between atoms: C0N_23  and  C0O_24 
REMARK    9  A    between atoms: C0O_24  and  N0P_25 
ROOT
ATOM      1  C02 MOL     1      -0.571   8.980  -2.777  1.00  0.00    -0.044 C 
ATOM      2  C03 MOL     1       0.679   9.286  -2.222  1.00  0.00     0.129 C 
ATOM      3  C08 MOL     1       1.798   8.360  -2.256  1.00  0.00    -0.316 C 
ATOM      4  C09 MOL     1       1.657   7.194  -2.985  1.00  0.00     0.109 C 
ATOM      5  C0E MOL     1       0.451   6.803  -3.490  1.00  0.00    -0.064 C 
ATOM      6  C0N MOL     1      -0.624   7.723  -3.482  1.00  0.00    -0.120 C 
ENDROOT
BRANCH   5   7
ATOM      7  C0F MOL     1       0.346   5.452  -4.180  1.00  0.00     0.047 C 
BRANCH   7   8
ATOM      8  C0G MOL     1       0.698   5.329  -5.637  1.00  0.00     0.171 C 
ATOM      9  C0M MOL     1       0.723   4.077  -6.286  1.00  0.00    -0.195 C 
ATOM     10  C0K MOL     1       1.075   3.973  -7.657  1.00  0.00    -0.062 C 
ATOM     11  C0J MOL     1       1.579   5.063  -8.372  1.00  0.00    -0.135 C 
ATOM     12  C0I MOL     1       1.574   6.310  -7.677  1.00  0.00    -0.071 C 
ATOM     13  C0H MOL     1       1.099   6.392  -6.385  1.00  0.00    -0.152 C 
ENDBRANCH   7   8
ENDBRANCH   5   7
BRANCH   6  14
ATOM     14  C0O MOL     1      -2.004   7.356  -4.119  1.00  0.00     0.092 C 
BRANCH  14  15
ATOM     15  N0P MOL     1      -2.196   7.717  -5.560  1.00  0.00    -0.153 N 
ATOM     16  H0Q MOL     1      -2.212   6.890  -6.133  1.00  0.00     0.257 HD
ATOM     17  H0R MOL     1      -3.136   8.092  -5.658  1.00  0.00     0.244 HD
ATOM     18  H0S MOL     1      -1.495   8.334  -5.944  1.00  0.00     0.246 HD
ENDBRANCH  14  15
ENDBRANCH   6  14
BRANCH   4  19
ATOM     19  C0A MOL     1       2.958   6.398  -3.238  1.00  0.00    -0.219 C 
BRANCH  19  20
ATOM     20  C0B MOL     1       4.264   7.076  -2.710  1.00  0.00     0.819 C 
ATOM     21  N0C MOL     1       4.664   6.745  -1.520  1.00  0.00    -0.993 N 
ATOM     22  H13 MOL     1       4.115   6.031  -1.047  1.00  0.00     0.395 HD
ATOM     23  H14 MOL     1       5.447   7.209  -1.098  1.00  0.00     0.440 HD
ATOM     24  O0D MOL     1       4.915   7.814  -3.428  1.00  0.00    -0.614 OA
ENDBRANCH  19  20
ENDBRANCH   4  19
BRANCH   1  25
ATOM     25  C01 MOL     1      -1.786   9.931  -2.706  1.00  0.00    -0.066 C 
ATOM     26  C00 MOL     1      -1.710  11.091  -3.810  1.00  0.00    -0.126 C 
ENDBRANCH   1  25
BRANCH   2  27
ATOM     27  C04 MOL     1       0.993  10.537  -1.433  1.00  0.00    -0.266 C 
BRANCH  27  28
ATOM     28  C05 MOL     1       0.816  10.418   0.060  1.00  0.00     0.870 C 
ATOM     29  O06 MOL     1      -0.056   9.763   0.597  1.00  0.00    -0.820 OA
ATOM     30  O07 MOL     1       1.688  10.981   0.806  1.00  0.00    -0.676 OA
ENDBRANCH  27  28
ENDBRANCH   2  27
TORSDOF 9
ENDMDL
MODEL 9
REMARK VINA RESULT:      -5.8      1.388      1.956
REMARK  9 active torsions:
REMARK  status: ('A' for Active; 'I' for Inactive)
REMARK    1  A    between atoms: C01_2  and  C02_3 
REMARK    2  A    between atoms: C03_4  and  C04_5 
REMARK    3  A    between atoms: C04_5  and  C05_6 
REMARK    4  A    between atoms: C09_10  and  C0A_11 
REMARK    5  A    between atoms: C0A_11  and  C0B_12 
REMARK       I    between atoms: C0B_12  and  N0C_13 
REMARK    6  A    between atoms: C0E_15  and  C0F_16 
REMARK    7  A    between atoms: C0F_16  and  C0G_17 
REMARK    8  A    between atoms: C0N_23  and  C0O_24 
REMARK    9  A    between atoms: C0O_24  and  N0P_25 
ROOT
ATOM      1  C02 MOL     1       2.125  10.335  -1.016  1.00  0.00    -0.044 C 
ATOM      2  C03 MOL     1       0.925  11.044  -0.873  1.00  0.00     0.129 C 
ATOM      3  C08 MOL     1      -0.027  11.197  -1.959  1.00  0.00    -0.316 C 
ATOM      4  C09 MOL     1       0.201  10.499  -3.130  1.00  0.00     0.109 C 
ATOM      5  C0E MOL     1       1.379   9.849  -3.361  1.00  0.00    -0.064 C 
ATOM      6  C0N MOL     1       2.286   9.675  -2.289  1.00  0.00    -0.120 C 
ENDROOT
BRANCH   5   7
ATOM      7  C0F MOL     1       1.607   9.201  -4.718  1.00  0.00     0.047 C 
BRANCH   7   8
ATOM      8  C0G MOL     1       2.302   9.974  -5.806  1.00  0.00     0.171 C 
ATOM      9  C0M MOL     1       3.674   9.791  -6.077  1.00  0.00    -0.195 C 
ATOM     10  C0K MOL     1       4.323  10.539  -7.093  1.00  0.00    -0.062 C 
ATOM     11  C0J MOL     1       3.690  11.603  -7.742  1.00  0.00    -0.135 C 
ATOM     12  C0I MOL     1       2.311  11.785  -7.420  1.00  0.00    -0.071 C 
ATOM     13  C0H MOL     1       1.683  10.949  -6.521  1.00  0.00    -0.152 C 
ENDBRANCH   7   8
ENDBRANCH   5   7
BRANCH   6  14
ATOM     14  C0O MOL     1       3.613   8.869  -2.477  1.00  0.00     0.092 C 
BRANCH  14  15
ATOM     15  N0P MOL     1       3.550   7.399  -2.199  1.00  0.00    -0.153 N 
ATOM     16  H0Q MOL     1       3.193   7.229  -1.274  1.00  0.00     0.257 HD
ATOM     17  H0R MOL     1       2.837   7.004  -2.805  1.00  0.00     0.244 HD
ATOM     18  H0S MOL     1       4.432   6.911  -2.274  1.00  0.00     0.246 HD
ENDBRANCH  14  15
ENDBRANCH   6  14
BRANCH   4  19
ATOM     19  C0A MOL     1      -0.978  10.456  -4.129  1.00  0.00    -0.219 C 
BRANCH  19  20
ATOM     20  C0B MOL     1      -1.850   9.159  -4.070  1.00  0.00     0.819 C 
ATOM     21  N0C MOL     1      -2.034   8.519  -5.184  1.00  0.00    -0.993 N 
ATOM     22  H13 MOL     1      -1.552   8.892  -5.998  1.00  0.00     0.395 HD
ATOM     23  H14 MOL     1      -2.652   7.729  -5.222  1.00  0.00     0.440 HD
ATOM     24  O0D MOL     1      -2.258   8.733  -3.005  1.00  0.00    -0.614 OA
ENDBRANCH  19  20
ENDBRANCH   4  19
BRANCH   1  25
ATOM     25  C01 MOL     1       3.172  10.204   0.111  1.00  0.00    -0.066 C 
ATOM     26  C00 MOL     1       4.286  11.356   0.037  1.00  0.00    -0.126 C 
ENDBRANCH   1  25
BRANCH   2  27
ATOM     27  C04 MOL     1       0.520  11.822   0.359  1.00  0.00    -0.266 C 
BRANCH  27  28
ATOM     28  C05 MOL     1       0.641  13.321   0.243  1.00  0.00     0.870 C 
ATOM     29  O06 MOL     1      -0.277  14.098   0.417  1.00  0.00    -0.820 OA
ATOM     30  O07 MOL     1       1.803  13.806   0.024  1.00  0.00    -0.676 OA
ENDBRANCH  27  28
ENDBRANCH   2  27
TORSDOF 9
ENDMDL
MODEL 10
REMARK VINA RESULT:      -5.7      4.163      7.557
REMARK  9 active torsions:
REMARK  status: ('A' for Active; 'I' for Inactive)
REMARK    1  A    between atoms: C01_2  and  C02_3 
REMARK    2  A    between atoms: C03_4  and  C04_5 
REMARK    3  A    between atoms: C04_5  and  C05_6 
REMARK    4  A    between atoms: C09_10  and  C0A_11 
REMARK    5  A    between atoms: C0A_11  and  C0B_12 
REMARK       I    between atoms: C0B_12  and  N0C_13 
REMARK    6  A    between atoms: C0E_15  and  C0F_16 
REMARK    7  A    between atoms: C0F_16  and  C0G_17 
REMARK    8  A    between atoms: C0N_23  and  C0O_24 
REMARK    9  A    between atoms: C0O_24  and  N0P_25 
ROOT
ATOM      1  C02 MOL     1       0.240   4.674  -4.792  1.00  0.00    -0.044 C 
ATOM      2  C03 MOL     1       1.449   5.127  -5.336  1.00  0.00     0.129 C 
ATOM      3  C08 MOL     1       2.069   6.378  -4.933  1.00  0.00    -0.316 C 
ATOM      4  C09 MOL     1       1.510   7.071  -3.875  1.00  0.00     0.109 C 
ATOM      5  C0E MOL     1       0.299   6.725  -3.348  1.00  0.00    -0.064 C 
ATOM      6  C0N MOL     1      -0.281   5.489  -3.722  1.00  0.00    -0.120 C 
ENDROOT
BRANCH   5   7
ATOM      7  C0F MOL     1      -0.309   7.602  -2.265  1.00  0.00     0.047 C 
BRANCH   7   8
ATOM      8  C0G MOL     1      -0.808   8.978  -2.613  1.00  0.00     0.171 C 
ATOM      9  C0M MOL     1      -1.613   9.204  -3.748  1.00  0.00    -0.195 C 
ATOM     10  C0K MOL     1      -2.063  10.510  -4.075  1.00  0.00    -0.062 C 
ATOM     11  C0J MOL     1      -1.589  11.641  -3.405  1.00  0.00    -0.135 C 
ATOM     12  C0I MOL     1      -0.746  11.381  -2.282  1.00  0.00    -0.071 C 
ATOM     13  C0H MOL     1      -0.441  10.087  -1.917  1.00  0.00    -0.152 C 
ENDBRANCH   7   8
ENDBRANCH   5   7
BRANCH   6  14
ATOM     14  C0O MOL     1      -1.627   5.006  -3.089  1.00  0.00     0.092 C 
BRANCH  14  15
ATOM     15  N0P MOL     1      -2.879   5.645  -3.606  1.00  0.00    -0.153 N 
ATOM     16  H0Q MOL     1      -3.322   6.190  -2.884  1.00  0.00     0.257 HD
ATOM     17  H0R MOL     1      -2.605   6.341  -4.293  1.00  0.00     0.244 HD
ATOM     18  H0S MOL     1      -3.572   5.003  -3.963  1.00  0.00     0.246 HD
ENDBRANCH  14  15
ENDBRANCH   6  14
BRANCH   4  19
ATOM     19  C0A MOL     1       2.367   8.219  -3.296  1.00  0.00    -0.219 C 
BRANCH  19  20
ATOM     20  C0B MOL     1       2.646   9.401  -4.281  1.00  0.00     0.819 C 
ATOM     21  N0C MOL     1       3.874   9.573  -4.666  1.00  0.00    -0.993 N 
ATOM     22  H13 MOL     1       4.547   8.889  -4.329  1.00  0.00     0.395 HD
ATOM     23  H14 MOL     1       4.125  10.364  -5.230  1.00  0.00     0.440 HD
ATOM     24  O0D MOL     1       1.730  10.068  -4.727  1.00  0.00    -0.614 OA
ENDBRANCH  19  20
ENDBRANCH   4  19
BRANCH   1  25
ATOM     25  C01 MOL     1      -0.459   3.374  -5.245  1.00  0.00    -0.066 C 
ATOM     26  C00 MOL     1      -0.351   3.151  -6.830  1.00  0.00    -0.126 C 
ENDBRANCH   1  25
BRANCH   2  27
ATOM     27  C04 MOL     1       2.195   4.456  -6.467  1.00  0.00    -0.266 C 
BRANCH  27  28
ATOM     28  C05 MOL     1       2.407   5.307  -7.694  1.00  0.00     0.870 C 
ATOM     29  O06 MOL     1       3.488   5.498  -8.217  1.00  0.00    -0.820 OA
ATOM     30  O07 MOL     1       1.372   5.794  -8.263  1.00  0.00    -0.676 OA
ENDBRANCH  27  28
ENDBRANCH   2  27
TORSDOF 9
ENDMDL
MODEL 11
REMARK VINA RESULT:      -5.7     20.315     23.387
REMARK  9 active torsions:
REMARK  status: ('A' for Active; 'I' for Inactive)
REMARK    1  A    between atoms: C01_2  and  C02_3 
REMARK    2  A    between atoms: C03_4  and  C04_5 
REMARK    3  A    between atoms: C04_5  and  C05_6 
REMARK    4  A    between atoms: C09_10  and  C0A_11 
REMARK    5  A    between atoms: C0A_11  and  C0B_12 
REMARK       I    between atoms: C0B_12  and  N0C_13 
REMARK    6  A    between atoms: C0E_15  and  C0F_16 
REMARK    7  A    between atoms: C0F_16  and  C0G_17 
REMARK    8  A    between atoms: C0N_23  and  C0O_24 
REMARK    9  A    between atoms: C0O_24  and  N0P_25 
ROOT
ATOM      1  C02 MOL     1     -12.408   1.730  11.778  1.00  0.00    -0.044 C 
ATOM      2  C03 MOL     1     -11.369   2.263  11.003  1.00  0.00     0.129 C 
ATOM      3  C08 MOL     1     -10.006   1.767  11.074  1.00  0.00    -0.316 C 
ATOM      4  C09 MOL     1      -9.762   0.638  11.833  1.00  0.00     0.109 C 
ATOM      5  C0E MOL     1     -10.708   0.112  12.664  1.00  0.00    -0.064 C 
ATOM      6  C0N MOL     1     -12.040   0.578  12.565  1.00  0.00    -0.120 C 
ENDROOT
BRANCH   5   7
ATOM      7  C0F MOL     1     -10.332  -1.060  13.557  1.00  0.00     0.047 C 
BRANCH   7   8
ATOM      8  C0G MOL     1     -10.300  -0.880  15.051  1.00  0.00     0.171 C 
ATOM      9  C0M MOL     1     -10.418  -1.978  15.928  1.00  0.00    -0.195 C 
ATOM     10  C0K MOL     1     -10.405  -1.792  17.334  1.00  0.00    -0.062 C 
ATOM     11  C0J MOL     1     -10.454  -0.519  17.909  1.00  0.00    -0.135 C 
ATOM     12  C0I MOL     1     -10.369   0.572  16.994  1.00  0.00    -0.071 C 
ATOM     13  C0H MOL     1     -10.250   0.345  15.639  1.00  0.00    -0.152 C 
ENDBRANCH   7   8
ENDBRANCH   5   7
BRANCH   6  14
ATOM     14  C0O MOL     1     -13.179  -0.045  13.436  1.00  0.00     0.092 C 
BRANCH  14  15
ATOM     15  N0P MOL     1     -13.886  -1.236  12.866  1.00  0.00    -0.153 N 
ATOM     16  H0Q MOL     1     -13.231  -1.853  12.414  1.00  0.00     0.257 HD
ATOM     17  H0R MOL     1     -14.232  -1.787  13.645  1.00  0.00     0.244 HD
ATOM     18  H0S MOL     1     -14.609  -1.024  12.193  1.00  0.00     0.246 HD
ENDBRANCH  14  15
ENDBRANCH   6  14
BRANCH   4  19
ATOM     19  C0A MOL     1      -8.376  -0.018  11.636  1.00  0.00    -0.219 C 
BRANCH  19  20
ATOM     20  C0B MOL     1      -7.386   0.782  10.727  1.00  0.00     0.819 C 
ATOM     21  N0C MOL     1      -7.388   0.502   9.460  1.00  0.00    -0.993 N 
ATOM     22  H13 MOL     1      -8.073  -0.186   9.156  1.00  0.00     0.395 HD
ATOM     23  H14 MOL     1      -6.717   0.923   8.844  1.00  0.00     0.440 HD
ATOM     24  O0D MOL     1      -6.712   1.685  11.188  1.00  0.00    -0.614 OA
ENDBRANCH  19  20
ENDBRANCH   4  19
BRANCH   1  25
ATOM     25  C01 MOL     1     -13.852   2.277  11.754  1.00  0.00    -0.066 C 
ATOM     26  C00 MOL     1     -14.701   1.685  10.528  1.00  0.00    -0.126 C 
ENDBRANCH   1  25
BRANCH   2  27
ATOM     27  C04 MOL     1     -11.495   3.468  10.098  1.00  0.00    -0.266 C 
BRANCH  27  28
ATOM     28  C05 MOL     1     -10.612   4.637  10.456  1.00  0.00     0.870 C 
ATOM     29  O06 MOL     1     -10.587   5.168  11.549  1.00  0.00    -0.820 OA
ATOM     30  O07 MOL     1      -9.781   5.043   9.574  1.00  0.00    -0.676 OA
ENDBRANCH  27  28
ENDBRANCH   2  27
TORSDOF 9
ENDMDL
MODEL 12
REMARK VINA RESULT:      -5.5      3.517      4.643
REMARK  9 active torsions:
REMARK  status: ('A' for Active; 'I' for Inactive)
REMARK    1  A    between atoms: C01_2  and  C02_3 
REMARK    2  A    between atoms: C03_4  and  C04_5 
REMARK    3  A    between atoms: C04_5  and  C05_6 
REMARK    4  A    between atoms: C09_10  and  C0A_11 
REMARK    5  A    between atoms: C0A_11  and  C0B_12 
REMARK       I    between atoms: C0B_12  and  N0C_13 
REMARK    6  A    between atoms: C0E_15  and  C0F_16 
REMARK    7  A    between atoms: C0F_16  and  C0G_17 
REMARK    8  A    between atoms: C0N_23  and  C0O_24 
REMARK    9  A    between atoms: C0O_24  and  N0P_25 
ROOT
ATOM      1  C02 MOL     1       2.330   9.417  -1.365  1.00  0.00    -0.044 C 
ATOM      2  C03 MOL     1       1.257  10.004  -0.680  1.00  0.00     0.129 C 
ATOM      3  C08 MOL     1      -0.091  10.038  -1.220  1.00  0.00    -0.316 C 
ATOM      4  C09 MOL     1      -0.342   9.343  -2.388  1.00  0.00     0.109 C 
ATOM      5  C0E MOL     1       0.665   8.810  -3.140  1.00  0.00    -0.064 C 
ATOM      6  C0N MOL     1       1.969   8.752  -2.592  1.00  0.00    -0.120 C 
ENDROOT
BRANCH   5   7
ATOM      7  C0F MOL     1       0.324   8.161  -4.472  1.00  0.00     0.047 C 
BRANCH   7   8
ATOM      8  C0G MOL     1       0.181   6.666  -4.559  1.00  0.00     0.171 C 
ATOM      9  C0M MOL     1       0.582   5.953  -5.707  1.00  0.00    -0.195 C 
ATOM     10  C0K MOL     1       0.425   4.545  -5.784  1.00  0.00    -0.062 C 
ATOM     11  C0J MOL     1      -0.287   3.831  -4.816  1.00  0.00    -0.135 C 
ATOM     12  C0I MOL     1      -0.711   4.586  -3.682  1.00  0.00    -0.071 C 
ATOM     13  C0H MOL     1      -0.421   5.931  -3.586  1.00  0.00    -0.152 C 
ENDBRANCH   7   8
ENDBRANCH   5   7
BRANCH   6  14
ATOM     14  C0O MOL     1       3.143   8.081  -3.377  1.00  0.00     0.092 C 
BRANCH  14  15
ATOM     15  N0P MOL     1       3.422   6.642  -3.067  1.00  0.00    -0.153 N 
ATOM     16  H0Q MOL     1       2.754   6.045  -3.526  1.00  0.00     0.257 HD
ATOM     17  H0R MOL     1       4.302   6.399  -3.513  1.00  0.00     0.244 HD
ATOM     18  H0S MOL     1       3.410   6.405  -2.085  1.00  0.00     0.246 HD
ENDBRANCH  14  15
ENDBRANCH   6  14
BRANCH   4  19
ATOM     19  C0A MOL     1      -1.833   9.159  -2.754  1.00  0.00    -0.219 C 
BRANCH  19  20
ATOM     20  C0B MOL     1      -2.432  10.272  -3.676  1.00  0.00     0.819 C 
ATOM     21  N0C MOL     1      -1.835  11.424  -3.678  1.00  0.00    -0.993 N 
ATOM     22  H13 MOL     1      -0.993  11.491  -3.111  1.00  0.00     0.395 HD
ATOM     23  H14 MOL     1      -2.223  12.198  -4.185  1.00  0.00     0.440 HD
ATOM     24  O0D MOL     1      -3.364  10.026  -4.419  1.00  0.00    -0.614 OA
ENDBRANCH  19  20
ENDBRANCH   4  19
BRANCH   1  25
ATOM     25  C01 MOL     1       3.779   9.416  -0.830  1.00  0.00    -0.066 C 
ATOM     26  C00 MOL     1       4.567  10.759  -1.219  1.00  0.00    -0.126 C 
ENDBRANCH   1  25
BRANCH   2  27
ATOM     27  C04 MOL     1       1.373  10.762   0.623  1.00  0.00    -0.266 C 
BRANCH  27  28
ATOM     28  C05 MOL     1       1.246   9.923   1.870  1.00  0.00     0.870 C 
ATOM     29  O06 MOL     1       2.153   9.722   2.655  1.00  0.00    -0.820 OA
ATOM     30  O07 MOL     1       0.091   9.461   2.158  1.00  0.00    -0.676 OA
ENDBRANCH  27  28
ENDBRANCH   2  27
TORSDOF 9
ENDMDL
MODEL 13
REMARK VINA RESULT:      -5.5      3.401      5.435
REMARK  9 active torsions:
REMARK  status: ('A' for Active; 'I' for Inactive)
REMARK    1  A    between atoms: C01_2  and  C02_3 
REMARK    2  A    between atoms: C03_4  and  C04_5 
REMARK    3  A    between atoms: C04_5  and  C05_6 
REMARK    4  A    between atoms: C09_10  and  C0A_11 
REMARK    5  A    between atoms: C0A_11  and  C0B_12 
REMARK       I    between atoms: C0B_12  and  N0C_13 
REMARK    6  A    between atoms: C0E_15  and  C0F_16 
REMARK    7  A    between atoms: C0F_16  and  C0G_17 
REMARK    8  A    between atoms: C0N_23  and  C0O_24 
REMARK    9  A    between atoms: C0O_24  and  N0P_25 
ROOT
ATOM      1  C02 MOL     1       2.413  11.419  -2.284  1.00  0.00    -0.044 C 
ATOM      2  C03 MOL     1       3.266  11.691  -3.362  1.00  0.00     0.129 C 
ATOM      3  C08 MOL     1       3.000  11.218  -4.710  1.00  0.00    -0.316 C 
ATOM      4  C09 MOL     1       1.790  10.597  -4.955  1.00  0.00     0.109 C 
ATOM      5  C0E MOL     1       0.946  10.239  -3.944  1.00  0.00    -0.064 C 
ATOM      6  C0N MOL     1       1.195  10.731  -2.640  1.00  0.00    -0.120 C 
ENDROOT
BRANCH   5   7
ATOM      7  C0F MOL     1      -0.313   9.455  -4.278  1.00  0.00     0.047 C 
BRANCH   7   8
ATOM      8  C0G MOL     1      -0.359   7.973  -4.017  1.00  0.00     0.171 C 
ATOM      9  C0M MOL     1       0.704   7.127  -4.393  1.00  0.00    -0.195 C 
ATOM     10  C0K MOL     1       0.641   5.728  -4.158  1.00  0.00    -0.062 C 
ATOM     11  C0J MOL     1      -0.531   5.109  -3.716  1.00  0.00    -0.135 C 
ATOM     12  C0I MOL     1      -1.602   5.990  -3.377  1.00  0.00    -0.071 C 
ATOM     13  C0H MOL     1      -1.452   7.355  -3.496  1.00  0.00    -0.152 C 
ENDBRANCH   7   8
ENDBRANCH   5   7
BRANCH   6  14
ATOM     14  C0O MOL     1       0.218  10.419  -1.460  1.00  0.00     0.092 C 
BRANCH  14  15
ATOM     15  N0P MOL     1       0.439   9.131  -0.729  1.00  0.00    -0.153 N 
ATOM     16  H0Q MOL     1       0.781   9.306   0.202  1.00  0.00     0.257 HD
ATOM     17  H0R MOL     1      -0.472   8.709  -0.572  1.00  0.00     0.244 HD
ATOM     18  H0S MOL     1       1.087   8.493  -1.170  1.00  0.00     0.246 HD
ENDBRANCH  14  15
ENDBRANCH   6  14
BRANCH   4  19
ATOM     19  C0A MOL     1       1.431  10.388  -6.444  1.00  0.00    -0.219 C 
BRANCH  19  20
ATOM     20  C0B MOL     1       1.247  11.700  -7.274  1.00  0.00     0.819 C 
ATOM     21  N0C MOL     1       0.088  12.280  -7.215  1.00  0.00    -0.993 N 
ATOM     22  H13 MOL     1      -0.594  11.854  -6.592  1.00  0.00     0.395 HD
ATOM     23  H14 MOL     1      -0.113  13.077  -7.791  1.00  0.00     0.440 HD
ATOM     24  O0D MOL     1       2.186  12.193  -7.873  1.00  0.00    -0.614 OA
ENDBRANCH  19  20
ENDBRANCH   4  19
BRANCH   1  25
ATOM     25  C01 MOL     1       2.705  11.869  -0.836  1.00  0.00    -0.066 C 
ATOM     26  C00 MOL     1       3.643  10.826  -0.058  1.00  0.00    -0.126 C 
ENDBRANCH   1  25
BRANCH   2  27
ATOM     27  C04 MOL     1       4.601  12.393  -3.254  1.00  0.00    -0.266 C 
BRANCH  27  28
ATOM     28  C05 MOL     1       5.810  11.504  -3.395  1.00  0.00     0.870 C 
ATOM     29  O06 MOL     1       6.034  10.536  -2.693  1.00  0.00    -0.820 OA
ATOM     30  O07 MOL     1       6.609  11.739  -4.364  1.00  0.00    -0.676 OA
ENDBRANCH  27  28
ENDBRANCH   2  27
TORSDOF 9
ENDMDL
MODEL 14
REMARK VINA RESULT:      -5.2     17.642     20.658
REMARK  9 active torsions:
REMARK  status: ('A' for Active; 'I' for Inactive)
REMARK    1  A    between atoms: C01_2  and  C02_3 
REMARK    2  A    between atoms: C03_4  and  C04_5 
REMARK    3  A    between atoms: C04_5  and  C05_6 
REMARK    4  A    between atoms: C09_10  and  C0A_11 
REMARK    5  A    between atoms: C0A_11  and  C0B_12 
REMARK       I    between atoms: C0B_12  and  N0C_13 
REMARK    6  A    between atoms: C0E_15  and  C0F_16 
REMARK    7  A    between atoms: C0F_16  and  C0G_17 
REMARK    8  A    between atoms: C0N_23  and  C0O_24 
REMARK    9  A    between atoms: C0O_24  and  N0P_25 
ROOT
ATOM      1  C02 MOL     1     -11.616  -5.859  -0.204  1.00  0.00    -0.044 C 
ATOM      2  C03 MOL     1     -10.453  -5.350   0.391  1.00  0.00     0.129 C 
ATOM      3  C08 MOL     1      -9.416  -4.676  -0.371  1.00  0.00    -0.316 C 
ATOM      4  C09 MOL     1      -9.657  -4.410  -1.705  1.00  0.00     0.109 C 
ATOM      5  C0E MOL     1     -10.731  -4.936  -2.362  1.00  0.00    -0.064 C 
ATOM      6  C0N MOL     1     -11.753  -5.562  -1.608  1.00  0.00    -0.120 C 
ENDROOT
BRANCH   5   7
ATOM      7  C0F MOL     1     -10.869  -4.697  -3.857  1.00  0.00     0.047 C 
BRANCH   7   8
ATOM      8  C0G MOL     1     -10.345  -5.721  -4.827  1.00  0.00     0.171 C 
ATOM      9  C0M MOL     1     -11.215  -6.565  -5.549  1.00  0.00    -0.195 C 
ATOM     10  C0K MOL     1     -10.707  -7.539  -6.447  1.00  0.00    -0.062 C 
ATOM     11  C0J MOL     1      -9.342  -7.827  -6.525  1.00  0.00    -0.135 C 
ATOM     12  C0I MOL     1      -8.489  -6.979  -5.756  1.00  0.00    -0.071 C 
ATOM     13  C0H MOL     1      -9.017  -5.957  -4.996  1.00  0.00    -0.152 C 
ENDBRANCH   7   8
ENDBRANCH   5   7
BRANCH   6  14
ATOM     14  C0O MOL     1     -13.044  -6.111  -2.300  1.00  0.00     0.092 C 
BRANCH  14  15
ATOM     15  N0P MOL     1     -13.008  -7.539  -2.751  1.00  0.00    -0.153 N 
ATOM     16  H0Q MOL     1     -13.786  -8.050  -2.368  1.00  0.00     0.257 HD
ATOM     17  H0R MOL     1     -13.187  -7.547  -3.750  1.00  0.00     0.244 HD
ATOM     18  H0S MOL     1     -12.168  -8.045  -2.506  1.00  0.00     0.246 HD
ENDBRANCH  14  15
ENDBRANCH   6  14
BRANCH   4  19
ATOM     19  C0A MOL     1      -8.666  -3.437  -2.386  1.00  0.00    -0.219 C 
BRANCH  19  20
ATOM     20  C0B MOL     1      -7.154  -3.782  -2.187  1.00  0.00     0.819 C 
ATOM     21  N0C MOL     1      -6.429  -2.918  -1.545  1.00  0.00    -0.993 N 
ATOM     22  H13 MOL     1      -6.921  -2.105  -1.182  1.00  0.00     0.395 HD
ATOM     23  H14 MOL     1      -5.438  -3.047  -1.460  1.00  0.00     0.440 HD
ATOM     24  O0D MOL     1      -6.710  -4.858  -2.546  1.00  0.00    -0.614 OA
ENDBRANCH  19  20
ENDBRANCH   4  19
BRANCH   1  25
ATOM     25  C01 MOL     1     -12.705  -6.623   0.581  1.00  0.00    -0.066 C 
ATOM     26  C00 MOL     1     -13.734  -5.630   1.307  1.00  0.00    -0.126 C 
ENDBRANCH   1  25
BRANCH   2  27
ATOM     27  C04 MOL     1     -10.074  -5.528   1.844  1.00  0.00    -0.266 C 
BRANCH  27  28
ATOM     28  C05 MOL     1     -10.310  -4.326   2.723  1.00  0.00     0.870 C 
ATOM     29  O06 MOL     1     -11.103  -3.440   2.474  1.00  0.00    -0.820 OA
ATOM     30  O07 MOL     1      -9.690  -4.279   3.840  1.00  0.00    -0.676 OA
ENDBRANCH  27  28
ENDBRANCH   2  27
TORSDOF 9
ENDMDL
MODEL 15
REMARK VINA RESULT:      -5.2     22.757     25.832
REMARK  9 active torsions:
REMARK  status: ('A' for Active; 'I' for Inactive)
REMARK    1  A    between atoms: C01_2  and  C02_3 
REMARK    2  A    between atoms: C03_4  and  C04_5 
REMARK    3  A    between atoms: C04_5  and  C05_6 
REMARK    4  A    between atoms: C09_10  and  C0A_11 
REMARK    5  A    between atoms: C0A_11  and  C0B_12 
REMARK       I    between atoms: C0B_12  and  N0C_13 
REMARK    6  A    between atoms: C0E_15  and  C0F_16 
REMARK    7  A    between atoms: C0F_16  and  C0G_17 
REMARK    8  A    between atoms: C0N_23  and  C0O_24 
REMARK    9  A    between atoms: C0O_24  and  N0P_25 
ROOT
ATOM      1  C02 MOL     1     -21.429  -3.404  -2.012  1.00  0.00    -0.044 C 
ATOM      2  C03 MOL     1     -20.488  -2.591  -1.366  1.00  0.00     0.129 C 
ATOM      3  C08 MOL     1     -20.110  -1.281  -1.869  1.00  0.00    -0.316 C 
ATOM      4  C09 MOL     1     -20.810  -0.770  -2.946  1.00  0.00     0.109 C 
ATOM      5  C0E MOL     1     -21.686  -1.532  -3.662  1.00  0.00    -0.064 C 
ATOM      6  C0N MOL     1     -22.074  -2.793  -3.148  1.00  0.00    -0.120 C 
ENDROOT
BRANCH   5   7
ATOM      7  C0F MOL     1     -22.332  -0.940  -4.905  1.00  0.00     0.047 C 
BRANCH   7   8
ATOM      8  C0G MOL     1     -21.797  -1.297  -6.265  1.00  0.00     0.171 C 
ATOM      9  C0M MOL     1     -22.612  -1.237  -7.415  1.00  0.00    -0.195 C 
ATOM     10  C0K MOL     1     -22.101  -1.593  -8.690  1.00  0.00    -0.062 C 
ATOM     11  C0J MOL     1     -20.843  -2.183  -8.840  1.00  0.00    -0.135 C 
ATOM     12  C0I MOL     1     -20.055  -2.262  -7.651  1.00  0.00    -0.071 C 
ATOM     13  C0H MOL     1     -20.541  -1.782  -6.454  1.00  0.00    -0.152 C 
ENDBRANCH   7   8
ENDBRANCH   5   7
BRANCH   6  14
ATOM     14  C0O MOL     1     -23.135  -3.673  -3.886  1.00  0.00     0.092 C 
BRANCH  14  15
ATOM     15  N0P MOL     1     -22.628  -4.551  -4.989  1.00  0.00    -0.153 N 
ATOM     16  H0Q MOL     1     -21.710  -4.901  -4.769  1.00  0.00     0.257 HD
ATOM     17  H0R MOL     1     -23.204  -5.387  -5.003  1.00  0.00     0.244 HD
ATOM     18  H0S MOL     1     -22.570  -4.109  -5.896  1.00  0.00     0.246 HD
ENDBRANCH  14  15
ENDBRANCH   6  14
BRANCH   4  19
ATOM     19  C0A MOL     1     -20.579   0.729  -3.247  1.00  0.00    -0.219 C 
BRANCH  19  20
ATOM     20  C0B MOL     1     -19.080   1.160  -3.362  1.00  0.00     0.819 C 
ATOM     21  N0C MOL     1     -18.551   1.742  -2.330  1.00  0.00    -0.993 N 
ATOM     22  H13 MOL     1     -19.147   1.826  -1.510  1.00  0.00     0.395 HD
ATOM     23  H14 MOL     1     -17.620   2.114  -2.377  1.00  0.00     0.440 HD
ATOM     24  O0D MOL     1     -18.427   0.876  -4.350  1.00  0.00    -0.614 OA
ENDBRANCH  19  20
ENDBRANCH   4  19
BRANCH   1  25
ATOM     25  C01 MOL     1     -21.805  -4.819  -1.521  1.00  0.00    -0.066 C 
ATOM     26  C00 MOL     1     -20.833  -5.945  -2.121  1.00  0.00    -0.126 C 
ENDBRANCH   1  25
BRANCH   2  27
ATOM     27  C04 MOL     1     -19.675  -2.998  -0.158  1.00  0.00    -0.266 C 
BRANCH  27  28
ATOM     28  C05 MOL     1     -19.647  -1.996   0.968  1.00  0.00     0.870 C 
ATOM     29  O06 MOL     1     -20.519  -1.883   1.807  1.00  0.00    -0.820 OA
ATOM     30  O07 MOL     1     -18.600  -1.273   1.091  1.00  0.00    -0.676 OA
ENDBRANCH  27  28
ENDBRANCH   2  27
TORSDOF 9
ENDMDL
MODEL 16
REMARK VINA RESULT:      -5.1     13.610     17.245
REMARK  9 active torsions:
REMARK  status: ('A' for Active; 'I' for Inactive)
REMARK    1  A    between atoms: C01_2  and  C02_3 
REMARK    2  A    between atoms: C03_4  and  C04_5 
REMARK    3  A    between atoms: C04_5  and  C05_6 
REMARK    4  A    between atoms: C09_10  and  C0A_11 
REMARK    5  A    between atoms: C0A_11  and  C0B_12 
REMARK       I    between atoms: C0B_12  and  N0C_13 
REMARK    6  A    between atoms: C0E_15  and  C0F_16 
REMARK    7  A    between atoms: C0F_16  and  C0G_17 
REMARK    8  A    between atoms: C0N_23  and  C0O_24 
REMARK    9  A    between atoms: C0O_24  and  N0P_25 
ROOT
ATOM      1  C02 MOL     1       1.339   8.826 -21.224  1.00  0.00    -0.044 C 
ATOM      2  C03 MOL     1       1.492   9.791 -20.219  1.00  0.00     0.129 C 
ATOM      3  C08 MOL     1       1.033   9.581 -18.857  1.00  0.00    -0.316 C 
ATOM      4  C09 MOL     1       0.555   8.330 -18.516  1.00  0.00     0.109 C 
ATOM      5  C0E MOL     1       0.315   7.370 -19.456  1.00  0.00    -0.064 C 
ATOM      6  C0N MOL     1       0.794   7.569 -20.773  1.00  0.00    -0.120 C 
ENDROOT
BRANCH   5   7
ATOM      7  C0F MOL     1      -0.322   6.059 -19.023  1.00  0.00     0.047 C 
BRANCH   7   8
ATOM      8  C0G MOL     1      -1.816   5.897 -19.091  1.00  0.00     0.171 C 
ATOM      9  C0M MOL     1      -2.492   4.958 -18.285  1.00  0.00    -0.195 C 
ATOM     10  C0K MOL     1      -3.900   4.802 -18.371  1.00  0.00    -0.062 C 
ATOM     11  C0J MOL     1      -4.650   5.431 -19.369  1.00  0.00    -0.135 C 
ATOM     12  C0I MOL     1      -3.931   6.349 -20.192  1.00  0.00    -0.071 C 
ATOM     13  C0H MOL     1      -2.585   6.570 -19.988  1.00  0.00    -0.152 C 
ENDBRANCH   7   8
ENDBRANCH   5   7
BRANCH   6  14
ATOM     14  C0O MOL     1       0.617   6.468 -21.869  1.00  0.00     0.092 C 
BRANCH  14  15
ATOM     15  N0P MOL     1       1.710   5.449 -21.980  1.00  0.00    -0.153 N 
ATOM     16  H0Q MOL     1       2.612   5.891 -21.921  1.00  0.00     0.257 HD
ATOM     17  H0R MOL     1       1.673   4.871 -21.146  1.00  0.00     0.244 HD
ATOM     18  H0S MOL     1       1.700   4.901 -22.829  1.00  0.00     0.246 HD
ENDBRANCH  14  15
ENDBRANCH   6  14
BRANCH   4  19
ATOM     19  C0A MOL     1       0.366   8.072 -17.003  1.00  0.00    -0.219 C 
BRANCH  19  20
ATOM     20  C0B MOL     1       1.540   8.564 -16.095  1.00  0.00     0.819 C 
ATOM     21  N0C MOL     1       2.568   7.781 -15.981  1.00  0.00    -0.993 N 
ATOM     22  H13 MOL     1       2.544   6.928 -16.535  1.00  0.00     0.395 HD
ATOM     23  H14 MOL     1       3.313   8.006 -15.346  1.00  0.00     0.440 HD
ATOM     24  O0D MOL     1       1.514   9.673 -15.593  1.00  0.00    -0.614 OA
ENDBRANCH  19  20
ENDBRANCH   4  19
BRANCH   1  25
ATOM     25  C01 MOL     1       1.774   9.050 -22.689  1.00  0.00    -0.066 C 
ATOM     26  C00 MOL     1       3.336   8.758 -22.906  1.00  0.00    -0.126 C 
ENDBRANCH   1  25
BRANCH   2  27
ATOM     27  C04 MOL     1       2.034  11.186 -20.434  1.00  0.00    -0.266 C 
BRANCH  27  28
ATOM     28  C05 MOL     1       3.462  11.396 -19.998  1.00  0.00     0.870 C 
ATOM     29  O06 MOL     1       4.291  10.511 -19.918  1.00  0.00    -0.820 OA
ATOM     30  O07 MOL     1       3.842  12.596 -19.776  1.00  0.00    -0.676 OA
ENDBRANCH  27  28
ENDBRANCH   2  27
TORSDOF 9
ENDMDL
MODEL 17
REMARK VINA RESULT:      -5.1      3.927      7.041
REMARK  9 active torsions:
REMARK  status: ('A' for Active; 'I' for Inactive)
REMARK    1  A    between atoms: C01_2  and  C02_3 
REMARK    2  A    between atoms: C03_4  and  C04_5 
REMARK    3  A    between atoms: C04_5  and  C05_6 
REMARK    4  A    between atoms: C09_10  and  C0A_11 
REMARK    5  A    between atoms: C0A_11  and  C0B_12 
REMARK       I    between atoms: C0B_12  and  N0C_13 
REMARK    6  A    between atoms: C0E_15  and  C0F_16 
REMARK    7  A    between atoms: C0F_16  and  C0G_17 
REMARK    8  A    between atoms: C0N_23  and  C0O_24 
REMARK    9  A    between atoms: C0O_24  and  N0P_25 
ROOT
ATOM      1  C02 MOL     1       2.804   6.630  -5.159  1.00  0.00    -0.044 C 
ATOM      2  C03 MOL     1       3.231   6.878  -6.470  1.00  0.00     0.129 C 
ATOM      3  C08 MOL     1       3.469   8.219  -6.975  1.00  0.00    -0.316 C 
ATOM      4  C09 MOL     1       3.401   9.273  -6.083  1.00  0.00     0.109 C 
ATOM      5  C0E MOL     1       2.925   9.112  -4.814  1.00  0.00    -0.064 C 
ATOM      6  C0N MOL     1       2.728   7.801  -4.319  1.00  0.00    -0.120 C 
ENDROOT
BRANCH   5   7
ATOM      7  C0F MOL     1       2.769  10.337  -3.927  1.00  0.00     0.047 C 
BRANCH   7   8
ATOM      8  C0G MOL     1       1.392  10.830  -3.571  1.00  0.00     0.171 C 
ATOM      9  C0M MOL     1       1.053  11.173  -2.246  1.00  0.00    -0.195 C 
ATOM     10  C0K MOL     1      -0.254  11.620  -1.920  1.00  0.00    -0.062 C 
ATOM     11  C0J MOL     1      -1.300  11.569  -2.845  1.00  0.00    -0.135 C 
ATOM     12  C0I MOL     1      -0.933  11.183  -4.169  1.00  0.00    -0.071 C 
ATOM     13  C0H MOL     1       0.378  10.884  -4.475  1.00  0.00    -0.152 C 
ENDBRANCH   7   8
ENDBRANCH   5   7
BRANCH   6  14
ATOM     14  C0O MOL     1       2.260   7.557  -2.847  1.00  0.00     0.092 C 
BRANCH  14  15
ATOM     15  N0P MOL     1       0.783   7.590  -2.598  1.00  0.00    -0.153 N 
ATOM     16  H0Q MOL     1       0.564   7.162  -1.714  1.00  0.00     0.257 HD
ATOM     17  H0R MOL     1       0.518   8.561  -2.464  1.00  0.00     0.244 HD
ATOM     18  H0S MOL     1       0.220   7.131  -3.300  1.00  0.00     0.246 HD
ENDBRANCH  14  15
ENDBRANCH   6  14
BRANCH   4  19
ATOM     19  C0A MOL     1       3.951  10.624  -6.596  1.00  0.00    -0.219 C 
BRANCH  19  20
ATOM     20  C0B MOL     1       3.045  11.357  -7.637  1.00  0.00     0.819 C 
ATOM     21  N0C MOL     1       3.628  11.853  -8.685  1.00  0.00    -0.993 N 
ATOM     22  H13 MOL     1       4.628  11.680  -8.764  1.00  0.00     0.395 HD
ATOM     23  H14 MOL     1       3.111  12.406  -9.343  1.00  0.00     0.440 HD
ATOM     24  O0D MOL     1       1.835  11.378  -7.502  1.00  0.00    -0.614 OA
ENDBRANCH  19  20
ENDBRANCH   4  19
BRANCH   1  25
ATOM     25  C01 MOL     1       2.497   5.216  -4.619  1.00  0.00    -0.066 C 
ATOM     26  C00 MOL     1       0.964   4.803  -4.845  1.00  0.00    -0.126 C 
ENDBRANCH   1  25
BRANCH   2  27
ATOM     27  C04 MOL     1       3.388   5.824  -7.543  1.00  0.00    -0.266 C 
BRANCH  27  28
ATOM     28  C05 MOL     1       2.139   5.512  -8.327  1.00  0.00     0.870 C 
ATOM     29  O06 MOL     1       2.070   4.666  -9.198  1.00  0.00    -0.820 OA
ATOM     30  O07 MOL     1       1.066   6.124  -8.000  1.00  0.00    -0.676 OA
ENDBRANCH  27  28
ENDBRANCH   2  27
TORSDOF 9
ENDMDL
MODEL 18
REMARK VINA RESULT:      -5.0     16.906     19.157
REMARK  9 active torsions:
REMARK  status: ('A' for Active; 'I' for Inactive)
REMARK    1  A    between atoms: C01_2  and  C02_3 
REMARK    2  A    between atoms: C03_4  and  C04_5 
REMARK    3  A    between atoms: C04_5  and  C05_6 
REMARK    4  A    between atoms: C09_10  and  C0A_11 
REMARK    5  A    between atoms: C0A_11  and  C0B_12 
REMARK       I    between atoms: C0B_12  and  N0C_13 
REMARK    6  A    between atoms: C0E_15  and  C0F_16 
REMARK    7  A    between atoms: C0F_16  and  C0G_17 
REMARK    8  A    between atoms: C0N_23  and  C0O_24 
REMARK    9  A    between atoms: C0O_24  and  N0P_25 
ROOT
ATOM      1  C02 MOL     1      -8.264  -6.514  -0.149  1.00  0.00    -0.044 C 
ATOM      2  C03 MOL     1      -9.568  -6.034  -0.329  1.00  0.00     0.129 C 
ATOM      3  C08 MOL     1      -9.855  -4.787  -1.017  1.00  0.00    -0.316 C 
ATOM      4  C09 MOL     1      -8.808  -4.127  -1.634  1.00  0.00     0.109 C 
ATOM      5  C0E MOL     1      -7.510  -4.500  -1.441  1.00  0.00    -0.064 C 
ATOM      6  C0N MOL     1      -7.240  -5.732  -0.799  1.00  0.00    -0.120 C 
ENDROOT
BRANCH   5   7
ATOM      7  C0F MOL     1      -6.403  -3.657  -2.056  1.00  0.00     0.047 C 
BRANCH   7   8
ATOM      8  C0G MOL     1      -5.792  -4.071  -3.367  1.00  0.00     0.171 C 
ATOM      9  C0M MOL     1      -4.537  -3.580  -3.781  1.00  0.00    -0.195 C 
ATOM     10  C0K MOL     1      -3.978  -3.964  -5.028  1.00  0.00    -0.062 C 
ATOM     11  C0J MOL     1      -4.712  -4.690  -5.970  1.00  0.00    -0.135 C 
ATOM     12  C0I MOL     1      -5.993  -5.144  -5.534  1.00  0.00    -0.071 C 
ATOM     13  C0H MOL     1      -6.444  -4.859  -4.263  1.00  0.00    -0.152 C 
ENDBRANCH   7   8
ENDBRANCH   5   7
BRANCH   6  14
ATOM     14  C0O MOL     1      -5.774  -6.246  -0.622  1.00  0.00     0.092 C 
BRANCH  14  15
ATOM     15  N0P MOL     1      -5.258  -7.177  -1.676  1.00  0.00    -0.153 N 
ATOM     16  H0Q MOL     1      -5.362  -6.769  -2.591  1.00  0.00     0.257 HD
ATOM     17  H0R MOL     1      -4.251  -7.242  -1.559  1.00  0.00     0.244 HD
ATOM     18  H0S MOL     1      -5.701  -8.084  -1.701  1.00  0.00     0.246 HD
ENDBRANCH  14  15
ENDBRANCH   6  14
BRANCH   4  19
ATOM     19  C0A MOL     1      -9.207  -2.984  -2.595  1.00  0.00    -0.219 C 
BRANCH  19  20
ATOM     20  C0B MOL     1     -10.130  -3.408  -3.784  1.00  0.00     0.819 C 
ATOM     21  N0C MOL     1     -11.102  -2.607  -4.095  1.00  0.00    -0.993 N 
ATOM     22  H13 MOL     1     -11.152  -1.740  -3.565  1.00  0.00     0.395 HD
ATOM     23  H14 MOL     1     -11.774  -2.867  -4.793  1.00  0.00     0.440 HD
ATOM     24  O0D MOL     1      -9.882  -4.406  -4.437  1.00  0.00    -0.614 OA
ENDBRANCH  19  20
ENDBRANCH   4  19
BRANCH   1  25
ATOM     25  C01 MOL     1      -7.936  -7.811   0.623  1.00  0.00    -0.066 C 
ATOM     26  C00 MOL     1      -7.692  -7.537   2.185  1.00  0.00    -0.126 C 
ENDBRANCH   1  25
BRANCH   2  27
ATOM     27  C04 MOL     1     -10.812  -6.668   0.251  1.00  0.00    -0.266 C 
BRANCH  27  28
ATOM     28  C05 MOL     1     -11.448  -5.914   1.392  1.00  0.00     0.870 C 
ATOM     29  O06 MOL     1     -12.553  -5.411   1.349  1.00  0.00    -0.820 OA
ATOM     30  O07 MOL     1     -10.812  -5.871   2.499  1.00  0.00    -0.676 OA
ENDBRANCH  27  28
ENDBRANCH   2  27
TORSDOF 9
ENDMDL
MODEL 19
REMARK VINA RESULT:      -4.9     14.967     16.839
REMARK  9 active torsions:
REMARK  status: ('A' for Active; 'I' for Inactive)
REMARK    1  A    between atoms: C01_2  and  C02_3 
REMARK    2  A    between atoms: C03_4  and  C04_5 
REMARK    3  A    between atoms: C04_5  and  C05_6 
REMARK    4  A    between atoms: C09_10  and  C0A_11 
REMARK    5  A    between atoms: C0A_11  and  C0B_12 
REMARK       I    between atoms: C0B_12  and  N0C_13 
REMARK    6  A    between atoms: C0E_15  and  C0F_16 
REMARK    7  A    between atoms: C0F_16  and  C0G_17 
REMARK    8  A    between atoms: C0N_23  and  C0O_24 
REMARK    9  A    between atoms: C0O_24  and  N0P_25 
ROOT
ATOM      1  C02 MOL     1      -7.132  23.402  -1.119  1.00  0.00    -0.044 C 
ATOM      2  C03 MOL     1      -6.339  24.531  -1.368  1.00  0.00     0.129 C 
ATOM      3  C08 MOL     1      -6.806  25.656  -2.159  1.00  0.00    -0.316 C 
ATOM      4  C09 MOL     1      -8.129  25.666  -2.560  1.00  0.00     0.109 C 
ATOM      5  C0E MOL     1      -8.934  24.574  -2.413  1.00  0.00    -0.064 C 
ATOM      6  C0N MOL     1      -8.484  23.497  -1.613  1.00  0.00    -0.120 C 
ENDROOT
BRANCH   5   7
ATOM      7  C0F MOL     1     -10.343  24.617  -2.983  1.00  0.00     0.047 C 
BRANCH   7   8
ATOM      8  C0G MOL     1     -10.564  24.349  -4.447  1.00  0.00     0.171 C 
ATOM      9  C0M MOL     1      -9.543  23.814  -5.259  1.00  0.00    -0.195 C 
ATOM     10  C0K MOL     1      -9.757  23.583  -6.643  1.00  0.00    -0.062 C 
ATOM     11  C0J MOL     1     -10.908  24.035  -7.295  1.00  0.00    -0.135 C 
ATOM     12  C0I MOL     1     -11.908  24.604  -6.451  1.00  0.00    -0.071 C 
ATOM     13  C0H MOL     1     -11.713  24.690  -5.089  1.00  0.00    -0.152 C 
ENDBRANCH   7   8
ENDBRANCH   5   7
BRANCH   6  14
ATOM     14  C0O MOL     1      -9.397  22.256  -1.345  1.00  0.00     0.092 C 
BRANCH  14  15
ATOM     15  N0P MOL     1     -10.193  22.269  -0.077  1.00  0.00    -0.153 N 
ATOM     16  H0Q MOL     1     -11.014  21.694  -0.168  1.00  0.00     0.257 HD
ATOM     17  H0R MOL     1      -9.646  21.791   0.632  1.00  0.00     0.244 HD
ATOM     18  H0S MOL     1     -10.501  23.183   0.226  1.00  0.00     0.246 HD
ENDBRANCH  14  15
ENDBRANCH   6  14
BRANCH   4  19
ATOM     19  C0A MOL     1      -8.648  27.006  -3.130  1.00  0.00    -0.219 C 
BRANCH  19  20
ATOM     20  C0B MOL     1      -7.779  27.622  -4.275  1.00  0.00     0.819 C 
ATOM     21  N0C MOL     1      -7.841  27.051  -5.438  1.00  0.00    -0.993 N 
ATOM     22  H13 MOL     1      -8.491  26.273  -5.519  1.00  0.00     0.395 HD
ATOM     23  H14 MOL     1      -7.243  27.351  -6.186  1.00  0.00     0.440 HD
ATOM     24  O0D MOL     1      -7.145  28.646  -4.091  1.00  0.00    -0.614 OA
ENDBRANCH  19  20
ENDBRANCH   4  19
BRANCH   1  25
ATOM     25  C01 MOL     1      -6.635  22.175  -0.324  1.00  0.00    -0.066 C 
ATOM     26  C00 MOL     1      -6.751  22.396   1.261  1.00  0.00    -0.126 C 
ENDBRANCH   1  25
BRANCH   2  27
ATOM     27  C04 MOL     1      -4.891  24.679  -0.959  1.00  0.00    -0.266 C 
BRANCH  27  28
ATOM     28  C05 MOL     1      -4.649  25.549   0.249  1.00  0.00     0.870 C 
ATOM     29  O06 MOL     1      -5.445  25.701   1.154  1.00  0.00    -0.820 OA
ATOM     30  O07 MOL     1      -3.501  26.098   0.361  1.00  0.00    -0.676 OA
ENDBRANCH  27  28
ENDBRANCH   2  27
TORSDOF 9
ENDMDL
MODEL 20
REMARK VINA RESULT:      -4.9     16.422     19.250
REMARK  9 active torsions:
REMARK  status: ('A' for Active; 'I' for Inactive)
REMARK    1  A    between atoms: C01_2  and  C02_3 
REMARK    2  A    between atoms: C03_4  and  C04_5 
REMARK    3  A    between atoms: C04_5  and  C05_6 
REMARK    4  A    between atoms: C09_10  and  C0A_11 
REMARK    5  A    between atoms: C0A_11  and  C0B_12 
REMARK       I    between atoms: C0B_12  and  N0C_13 
REMARK    6  A    between atoms: C0E_15  and  C0F_16 
REMARK    7  A    between atoms: C0F_16  and  C0G_17 
REMARK    8  A    between atoms: C0N_23  and  C0O_24 
REMARK    9  A    between atoms: C0O_24  and  N0P_25 
ROOT
ATOM      1  C02 MOL     1      -8.347  -5.401  -1.285  1.00  0.00    -0.044 C 
ATOM      2  C03 MOL     1      -8.068  -4.324  -2.137  1.00  0.00     0.129 C 
ATOM      3  C08 MOL     1      -6.735  -4.059  -2.650  1.00  0.00    -0.316 C 
ATOM      4  C09 MOL     1      -5.742  -4.986  -2.395  1.00  0.00     0.109 C 
ATOM      5  C0E MOL     1      -5.926  -6.016  -1.519  1.00  0.00    -0.064 C 
ATOM      6  C0N MOL     1      -7.234  -6.287  -1.050  1.00  0.00    -0.120 C 
ENDROOT
BRANCH   5   7
ATOM      7  C0F MOL     1      -4.753  -6.928  -1.198  1.00  0.00     0.047 C 
BRANCH   7   8
ATOM      8  C0G MOL     1      -3.820  -6.574  -0.071  1.00  0.00     0.171 C 
ATOM      9  C0M MOL     1      -2.436  -6.831  -0.154  1.00  0.00    -0.195 C 
ATOM     10  C0K MOL     1      -1.569  -6.509   0.923  1.00  0.00    -0.062 C 
ATOM     11  C0J MOL     1      -2.060  -6.097   2.164  1.00  0.00    -0.135 C 
ATOM     12  C0I MOL     1      -3.469  -5.879   2.227  1.00  0.00    -0.071 C 
ATOM     13  C0H MOL     1      -4.260  -6.078   1.116  1.00  0.00    -0.152 C 
ENDBRANCH   7   8
ENDBRANCH   5   7
BRANCH   6  14
ATOM     14  C0O MOL     1      -7.516  -7.503  -0.107  1.00  0.00     0.092 C 
BRANCH  14  15
ATOM     15  N0P MOL     1      -7.852  -8.803  -0.771  1.00  0.00    -0.153 N 
ATOM     16  H0Q MOL     1      -8.847  -8.959  -0.759  1.00  0.00     0.257 HD
ATOM     17  H0R MOL     1      -7.639  -8.705  -1.759  1.00  0.00     0.244 HD
ATOM     18  H0S MOL     1      -7.417  -9.618  -0.362  1.00  0.00     0.246 HD
ENDBRANCH  14  15
ENDBRANCH   6  14
BRANCH   4  19
ATOM     19  C0A MOL     1      -4.437  -4.813  -3.206  1.00  0.00    -0.219 C 
BRANCH  19  20
ATOM     20  C0B MOL     1      -4.483  -3.709  -4.312  1.00  0.00     0.819 C 
ATOM     21  N0C MOL     1      -3.892  -2.584  -4.051  1.00  0.00    -0.993 N 
ATOM     22  H13 MOL     1      -3.404  -2.532  -3.160  1.00  0.00     0.395 HD
ATOM     23  H14 MOL     1      -3.961  -1.812  -4.688  1.00  0.00     0.440 HD
ATOM     24  O0D MOL     1      -4.980  -3.941  -5.400  1.00  0.00    -0.614 OA
ENDBRANCH  19  20
ENDBRANCH   4  19
BRANCH   1  25
ATOM     25  C01 MOL     1      -9.747  -5.669  -0.689  1.00  0.00    -0.066 C 
ATOM     26  C00 MOL     1      -9.992  -4.849   0.668  1.00  0.00    -0.126 C 
ENDBRANCH   1  25
BRANCH   2  27
ATOM     27  C04 MOL     1      -9.059  -3.255  -2.536  1.00  0.00    -0.266 C 
BRANCH  27  28
ATOM     28  C05 MOL     1      -9.921  -3.587  -3.728  1.00  0.00     0.870 C 
ATOM     29  O06 MOL     1     -10.936  -2.990  -4.027  1.00  0.00    -0.820 OA
ATOM     30  O07 MOL     1      -9.512  -4.507  -4.516  1.00  0.00    -0.676 OA
ENDBRANCH  27  28
ENDBRANCH   2  27
TORSDOF 9
ENDMDL
