MODEL 1
REMARK VINA RESULT:      -6.6      0.000      0.000
REMARK  9 active torsions:
REMARK  status: ('A' for Active; 'I' for Inactive)
REMARK    1  A    between atoms: C01_2  and  C02_3 
REMARK    2  A    between atoms: C03_4  and  C04_5 
REMARK    3  A    between atoms: C04_5  and  C05_6 
REMARK    4  A    between atoms: C09_10  and  C0A_11 
REMARK    5  A    between atoms: C0A_11  and  C0B_12 
REMARK       I    between atoms: C0B_12  and  N0C_13 
REMARK    6  A    between atoms: C0E_15  and  C0F_16 
REMARK    7  A    between atoms: C0F_16  and  C0G_17 
REMARK    8  A    between atoms: C0N_23  and  C0O_24 
REMARK    9  A    between atoms: C0O_24  and  N0P_25 
ROOT
ATOM      1  C02 MOL     1       1.735   6.938  -6.284  1.00  0.00    -0.044 C 
ATOM      2  C03 MOL     1       0.930   5.972  -5.664  1.00  0.00     0.129 C 
ATOM      3  C08 MOL     1      -0.163   6.320  -4.772  1.00  0.00    -0.316 C 
ATOM      4  C09 MOL     1      -0.501   7.655  -4.645  1.00  0.00     0.109 C 
ATOM      5  C0E MOL     1       0.280   8.647  -5.163  1.00  0.00    -0.064 C 
ATOM      6  C0N MOL     1       1.322   8.301  -6.057  1.00  0.00    -0.120 C 
ENDROOT
BRANCH   5   7
ATOM      7  C0F MOL     1      -0.090  10.096  -4.885  1.00  0.00     0.047 C 
BRANCH   7   8
ATOM      8  C0G MOL     1       0.400  10.762  -3.628  1.00  0.00     0.171 C 
ATOM      9  C0M MOL     1       1.776  10.966  -3.391  1.00  0.00    -0.195 C 
ATOM     10  C0K MOL     1       2.227  11.579  -2.194  1.00  0.00    -0.062 C 
ATOM     11  C0J MOL     1       1.359  11.842  -1.130  1.00  0.00    -0.135 C 
ATOM     12  C0I MOL     1      -0.022  11.592  -1.387  1.00  0.00    -0.071 C 
ATOM     13  C0H MOL     1      -0.433  11.119  -2.615  1.00  0.00    -0.152 C 
ENDBRANCH   7   8
ENDBRANCH   5   7
BRANCH   6  14
ATOM     14  C0O MOL     1       2.196   9.402  -6.741  1.00  0.00     0.092 C 
BRANCH  14  15
ATOM     15  N0P MOL     1       1.682   9.962  -8.031  1.00  0.00    -0.153 N 
ATOM     16  H0Q MOL     1       2.402  10.484  -8.503  1.00  0.00     0.257 HD
ATOM     17  H0R MOL     1       1.507   9.180  -8.655  1.00  0.00     0.244 HD
ATOM     18  H0S MOL     1       0.880  10.572  -7.945  1.00  0.00     0.246 HD
ENDBRANCH  14  15
ENDBRANCH   6  14
BRANCH   4  19
ATOM     19  C0A MOL     1      -1.842   7.944  -3.934  1.00  0.00    -0.219 C 
BRANCH  19  20
ATOM     20  C0B MOL     1      -2.988   8.464  -4.863  1.00  0.00     0.819 C 
ATOM     21  N0C MOL     1      -3.294   7.734  -5.891  1.00  0.00    -0.993 N 
ATOM     22  H13 MOL     1      -2.791   6.854  -5.979  1.00  0.00     0.395 HD
ATOM     23  H14 MOL     1      -3.962   8.058  -6.566  1.00  0.00     0.440 HD
ATOM     24  O0D MOL     1      -3.615   9.467  -4.573  1.00  0.00    -0.614 OA
ENDBRANCH  19  20
ENDBRANCH   4  19
BRANCH   1  25
ATOM     25  C01 MOL     1       2.932   6.586  -7.194  1.00  0.00    -0.066 C 
ATOM     26  C00 MOL     1       2.470   6.240  -8.691  1.00  0.00    -0.126 C 
ENDBRANCH   1  25
BRANCH   2  27
ATOM     27  C04 MOL     1       1.152   4.479  -5.743  1.00  0.00    -0.266 C 
BRANCH  27  28
ATOM     28  C05 MOL     1      -0.011   3.681  -6.275  1.00  0.00     0.870 C 
ATOM     29  O06 MOL     1      -0.264   3.542  -7.456  1.00  0.00    -0.820 OA
ATOM     30  O07 MOL     1      -0.730   3.047  -5.429  1.00  0.00    -0.676 OA
ENDBRANCH  27  28
ENDBRANCH   2  27
TORSDOF 9
ENDMDL
MODEL 2
REMARK VINA RESULT:      -6.0      3.539      6.971
REMARK  9 active torsions:
REMARK  status: ('A' for Active; 'I' for Inactive)
REMARK    1  A    between atoms: C01_2  and  C02_3 
REMARK    2  A    between atoms: C03_4  and  C04_5 
REMARK    3  A    between atoms: C04_5  and  C05_6 
REMARK    4  A    between atoms: C09_10  and  C0A_11 
REMARK    5  A    between atoms: C0A_11  and  C0B_12 
REMARK       I    between atoms: C0B_12  and  N0C_13 
REMARK    6  A    between atoms: C0E_15  and  C0F_16 
REMARK    7  A    between atoms: C0F_16  and  C0G_17 
REMARK    8  A    between atoms: C0N_23  and  C0O_24 
REMARK    9  A    between atoms: C0O_24  and  N0P_25 
ROOT
ATOM      1  C02 MOL     1       2.342  10.107  -0.731  1.00  0.00    -0.044 C 
ATOM      2  C03 MOL     1       1.229  10.790  -0.222  1.00  0.00     0.129 C 
ATOM      3  C08 MOL     1      -0.062  10.787  -0.889  1.00  0.00    -0.316 C 
ATOM      4  C09 MOL     1      -0.226   9.965  -1.988  1.00  0.00     0.109 C 
ATOM      5  C0E MOL     1       0.829   9.329  -2.575  1.00  0.00    -0.064 C 
ATOM      6  C0N MOL     1       2.075   9.310  -1.903  1.00  0.00    -0.120 C 
ENDROOT
BRANCH   5   7
ATOM      7  C0F MOL     1       0.594   8.536  -3.851  1.00  0.00     0.047 C 
BRANCH   7   8
ATOM      8  C0G MOL     1       0.281   7.067  -3.768  1.00  0.00     0.171 C 
ATOM      9  C0M MOL     1       1.183   6.095  -4.249  1.00  0.00    -0.195 C 
ATOM     10  C0K MOL     1       0.869   4.712  -4.182  1.00  0.00    -0.062 C 
ATOM     11  C0J MOL     1      -0.401   4.264  -3.809  1.00  0.00    -0.135 C 
ATOM     12  C0I MOL     1      -1.303   5.275  -3.361  1.00  0.00    -0.071 C 
ATOM     13  C0H MOL     1      -0.912   6.596  -3.318  1.00  0.00    -0.152 C 
ENDBRANCH   7   8
ENDBRANCH   5   7
BRANCH   6  14
ATOM     14  C0O MOL     1       3.296   8.530  -2.491  1.00  0.00     0.092 C 
BRANCH  14  15
ATOM     15  N0P MOL     1       3.575   7.180  -1.905  1.00  0.00    -0.153 N 
ATOM     16  H0Q MOL     1       4.092   6.612  -2.556  1.00  0.00     0.257 HD
ATOM     17  H0R MOL     1       4.224   7.309  -1.135  1.00  0.00     0.244 HD
ATOM     18  H0S MOL     1       2.756   6.653  -1.633  1.00  0.00     0.246 HD
ENDBRANCH  14  15
ENDBRANCH   6  14
BRANCH   4  19
ATOM     19  C0A MOL     1      -1.682   9.770  -2.470  1.00  0.00    -0.219 C 
BRANCH  19  20
ATOM     20  C0B MOL     1      -2.087  10.618  -3.720  1.00  0.00     0.819 C 
ATOM     21  N0C MOL     1      -3.094  10.197  -4.421  1.00  0.00    -0.993 N 
ATOM     22  H13 MOL     1      -3.569   9.369  -4.068  1.00  0.00     0.395 HD
ATOM     23  H14 MOL     1      -3.346  10.654  -5.278  1.00  0.00     0.440 HD
ATOM     24  O0D MOL     1      -1.528  11.673  -3.961  1.00  0.00    -0.614 OA
ENDBRANCH  19  20
ENDBRANCH   4  19
BRANCH   1  25
ATOM     25  C01 MOL     1       3.735  10.141  -0.064  1.00  0.00    -0.066 C 
ATOM     26  C00 MOL     1       4.652  11.323  -0.642  1.00  0.00    -0.126 C 
ENDBRANCH   1  25
BRANCH   2  27
ATOM     27  C04 MOL     1       1.246  11.693   0.990  1.00  0.00    -0.266 C 
BRANCH  27  28
ATOM     28  C05 MOL     1       0.937  13.144   0.718  1.00  0.00     0.870 C 
ATOM     29  O06 MOL     1       1.655  13.889   0.080  1.00  0.00    -0.820 OA
ATOM     30  O07 MOL     1      -0.189  13.594   1.119  1.00  0.00    -0.676 OA
ENDBRANCH  27  28
ENDBRANCH   2  27
TORSDOF 9
ENDMDL
MODEL 3
REMARK VINA RESULT:      -5.8     11.602     14.388
REMARK  9 active torsions:
REMARK  status: ('A' for Active; 'I' for Inactive)
REMARK    1  A    between atoms: C01_2  and  C02_3 
REMARK    2  A    between atoms: C03_4  and  C04_5 
REMARK    3  A    between atoms: C04_5  and  C05_6 
REMARK    4  A    between atoms: C09_10  and  C0A_11 
REMARK    5  A    between atoms: C0A_11  and  C0B_12 
REMARK       I    between atoms: C0B_12  and  N0C_13 
REMARK    6  A    between atoms: C0E_15  and  C0F_16 
REMARK    7  A    between atoms: C0F_16  and  C0G_17 
REMARK    8  A    between atoms: C0N_23  and  C0O_24 
REMARK    9  A    between atoms: C0O_24  and  N0P_25 
ROOT
ATOM      1  C02 MOL     1       0.655   9.479 -18.565  1.00  0.00    -0.044 C 
ATOM      2  C03 MOL     1       1.051   9.215 -17.246  1.00  0.00     0.129 C 
ATOM      3  C08 MOL     1       0.810   7.937 -16.599  1.00  0.00    -0.316 C 
ATOM      4  C09 MOL     1       0.296   6.906 -17.362  1.00  0.00     0.109 C 
ATOM      5  C0E MOL     1      -0.174   7.112 -18.627  1.00  0.00    -0.064 C 
ATOM      6  C0N MOL     1       0.094   8.348 -19.262  1.00  0.00    -0.120 C 
ENDROOT
BRANCH   5   7
ATOM      7  C0F MOL     1      -0.834   5.957 -19.364  1.00  0.00     0.047 C 
BRANCH   7   8
ATOM      8  C0G MOL     1      -2.316   5.737 -19.232  1.00  0.00     0.171 C 
ATOM      9  C0M MOL     1      -3.243   6.516 -19.954  1.00  0.00    -0.195 C 
ATOM     10  C0K MOL     1      -4.640   6.311 -19.807  1.00  0.00    -0.062 C 
ATOM     11  C0J MOL     1      -5.160   5.466 -18.823  1.00  0.00    -0.135 C 
ATOM     12  C0I MOL     1      -4.195   4.717 -18.084  1.00  0.00    -0.071 C 
ATOM     13  C0H MOL     1      -2.849   4.849 -18.350  1.00  0.00    -0.152 C 
ENDBRANCH   7   8
ENDBRANCH   5   7
BRANCH   6  14
ATOM     14  C0O MOL     1      -0.351   8.608 -20.739  1.00  0.00     0.092 C 
BRANCH  14  15
ATOM     15  N0P MOL     1       0.629   8.241 -21.810  1.00  0.00    -0.153 N 
ATOM     16  H0Q MOL     1       0.641   8.942 -22.533  1.00  0.00     0.257 HD
ATOM     17  H0R MOL     1       1.559   8.301 -21.406  1.00  0.00     0.244 HD
ATOM     18  H0S MOL     1       0.461   7.352 -22.258  1.00  0.00     0.246 HD
ENDBRANCH  14  15
ENDBRANCH   6  14
BRANCH   4  19
ATOM     19  C0A MOL     1       0.341   5.503 -16.715  1.00  0.00    -0.219 C 
BRANCH  19  20
ATOM     20  C0B MOL     1       1.696   5.132 -16.028  1.00  0.00     0.819 C 
ATOM     21  N0C MOL     1       1.637   4.635 -14.830  1.00  0.00    -0.993 N 
ATOM     22  H13 MOL     1       0.703   4.483 -14.456  1.00  0.00     0.395 HD
ATOM     23  H14 MOL     1       2.476   4.458 -14.310  1.00  0.00     0.440 HD
ATOM     24  O0D MOL     1       2.747   5.229 -16.635  1.00  0.00    -0.614 OA
ENDBRANCH  19  20
ENDBRANCH   4  19
BRANCH   1  25
ATOM     25  C01 MOL     1       0.858  10.846 -19.253  1.00  0.00    -0.066 C 
ATOM     26  C00 MOL     1       2.297  10.964 -19.951  1.00  0.00    -0.126 C 
ENDBRANCH   1  25
BRANCH   2  27
ATOM     27  C04 MOL     1       1.661  10.229 -16.306  1.00  0.00    -0.266 C 
BRANCH  27  28
ATOM     28  C05 MOL     1       3.152  10.115 -16.114  1.00  0.00     0.870 C 
ATOM     29  O06 MOL     1       3.978  10.645 -16.832  1.00  0.00    -0.820 OA
ATOM     30  O07 MOL     1       3.570   9.485 -15.084  1.00  0.00    -0.676 OA
ENDBRANCH  27  28
ENDBRANCH   2  27
TORSDOF 9
ENDMDL
MODEL 4
REMARK VINA RESULT:      -5.8      3.192      6.819
REMARK  9 active torsions:
REMARK  status: ('A' for Active; 'I' for Inactive)
REMARK    1  A    between atoms: C01_2  and  C02_3 
REMARK    2  A    between atoms: C03_4  and  C04_5 
REMARK    3  A    between atoms: C04_5  and  C05_6 
REMARK    4  A    between atoms: C09_10  and  C0A_11 
REMARK    5  A    between atoms: C0A_11  and  C0B_12 
REMARK       I    between atoms: C0B_12  and  N0C_13 
REMARK    6  A    between atoms: C0E_15  and  C0F_16 
REMARK    7  A    between atoms: C0F_16  and  C0G_17 
REMARK    8  A    between atoms: C0N_23  and  C0O_24 
REMARK    9  A    between atoms: C0O_24  and  N0P_25 
ROOT
ATOM      1  C02 MOL     1       0.791  11.078  -2.380  1.00  0.00    -0.044 C 
ATOM      2  C03 MOL     1       2.103  11.213  -2.854  1.00  0.00     0.129 C 
ATOM      3  C08 MOL     1       2.613  10.441  -3.974  1.00  0.00    -0.316 C 
ATOM      4  C09 MOL     1       1.726   9.649  -4.678  1.00  0.00     0.109 C 
ATOM      5  C0E MOL     1       0.457   9.418  -4.232  1.00  0.00    -0.064 C 
ATOM      6  C0N MOL     1      -0.043  10.198  -3.161  1.00  0.00    -0.120 C 
ENDROOT
BRANCH   5   7
ATOM      7  C0F MOL     1      -0.426   8.443  -4.995  1.00  0.00     0.047 C 
BRANCH   7   8
ATOM      8  C0G MOL     1      -0.425   6.986  -4.619  1.00  0.00     0.171 C 
ATOM      9  C0M MOL     1       0.365   6.047  -5.314  1.00  0.00    -0.195 C 
ATOM     10  C0K MOL     1       0.344   4.673  -4.962  1.00  0.00    -0.062 C 
ATOM     11  C0J MOL     1      -0.580   4.162  -4.046  1.00  0.00    -0.135 C 
ATOM     12  C0I MOL     1      -1.391   5.133  -3.385  1.00  0.00    -0.071 C 
ATOM     13  C0H MOL     1      -1.245   6.476  -3.662  1.00  0.00    -0.152 C 
ENDBRANCH   7   8
ENDBRANCH   5   7
BRANCH   6  14
ATOM     14  C0O MOL     1      -1.516  10.031  -2.662  1.00  0.00     0.092 C 
BRANCH  14  15
ATOM     15  N0P MOL     1      -2.578  10.722  -3.460  1.00  0.00    -0.153 N 
ATOM     16  H0Q MOL     1      -2.910  11.540  -2.975  1.00  0.00     0.257 HD
ATOM     17  H0R MOL     1      -2.135  11.103  -4.291  1.00  0.00     0.244 HD
ATOM     18  H0S MOL     1      -3.385  10.156  -3.680  1.00  0.00     0.246 HD
ENDBRANCH  14  15
ENDBRANCH   6  14
BRANCH   4  19
ATOM     19  C0A MOL     1       2.243   9.092  -6.024  1.00  0.00    -0.219 C 
BRANCH  19  20
ATOM     20  C0B MOL     1       2.173  10.091  -7.226  1.00  0.00     0.819 C 
ATOM     21  N0C MOL     1       3.123  10.024  -8.107  1.00  0.00    -0.993 N 
ATOM     22  H13 MOL     1       3.813   9.290  -7.966  1.00  0.00     0.395 HD
ATOM     23  H14 MOL     1       3.175  10.694  -8.853  1.00  0.00     0.440 HD
ATOM     24  O0D MOL     1       1.217  10.833  -7.362  1.00  0.00    -0.614 OA
ENDBRANCH  19  20
ENDBRANCH   4  19
BRANCH   1  25
ATOM     25  C01 MOL     1       0.247  11.852  -1.160  1.00  0.00    -0.066 C 
ATOM     26  C00 MOL     1       0.492  11.062   0.215  1.00  0.00    -0.126 C 
ENDBRANCH   1  25
BRANCH   2  27
ATOM     27  C04 MOL     1       3.172  12.069  -2.213  1.00  0.00    -0.266 C 
BRANCH  27  28
ATOM     28  C05 MOL     1       4.241  11.313  -1.465  1.00  0.00     0.870 C 
ATOM     29  O06 MOL     1       5.428  11.565  -1.526  1.00  0.00    -0.820 OA
ATOM     30  O07 MOL     1       3.863  10.399  -0.656  1.00  0.00    -0.676 OA
ENDBRANCH  27  28
ENDBRANCH   2  27
TORSDOF 9
ENDMDL
MODEL 5
REMARK VINA RESULT:      -5.6      3.467      6.805
REMARK  9 active torsions:
REMARK  status: ('A' for Active; 'I' for Inactive)
REMARK    1  A    between atoms: C01_2  and  C02_3 
REMARK    2  A    between atoms: C03_4  and  C04_5 
REMARK    3  A    between atoms: C04_5  and  C05_6 
REMARK    4  A    between atoms: C09_10  and  C0A_11 
REMARK    5  A    between atoms: C0A_11  and  C0B_12 
REMARK       I    between atoms: C0B_12  and  N0C_13 
REMARK    6  A    between atoms: C0E_15  and  C0F_16 
REMARK    7  A    between atoms: C0F_16  and  C0G_17 
REMARK    8  A    between atoms: C0N_23  and  C0O_24 
REMARK    9  A    between atoms: C0O_24  and  N0P_25 
ROOT
ATOM      1  C02 MOL     1       2.072  10.270  -0.853  1.00  0.00    -0.044 C 
ATOM      2  C03 MOL     1       0.909  11.052  -0.818  1.00  0.00     0.129 C 
ATOM      3  C08 MOL     1       0.073  11.262  -1.987  1.00  0.00    -0.316 C 
ATOM      4  C09 MOL     1       0.365  10.549  -3.135  1.00  0.00     0.109 C 
ATOM      5  C0E MOL     1       1.516   9.827  -3.259  1.00  0.00    -0.064 C 
ATOM      6  C0N MOL     1       2.308   9.600  -2.108  1.00  0.00    -0.120 C 
ENDROOT
BRANCH   5   7
ATOM      7  C0F MOL     1       1.829   9.164  -4.592  1.00  0.00     0.047 C 
BRANCH   7   8
ATOM      8  C0G MOL     1       2.686   9.882  -5.599  1.00  0.00     0.171 C 
ATOM      9  C0M MOL     1       3.141  11.198  -5.374  1.00  0.00    -0.195 C 
ATOM     10  C0K MOL     1       3.934  11.871  -6.339  1.00  0.00    -0.062 C 
ATOM     11  C0J MOL     1       4.149  11.340  -7.614  1.00  0.00    -0.135 C 
ATOM     12  C0I MOL     1       3.646  10.020  -7.823  1.00  0.00    -0.071 C 
ATOM     13  C0H MOL     1       2.994   9.349  -6.811  1.00  0.00    -0.152 C 
ENDBRANCH   7   8
ENDBRANCH   5   7
BRANCH   6  14
ATOM     14  C0O MOL     1       3.595   8.714  -2.177  1.00  0.00     0.092 C 
BRANCH  14  15
ATOM     15  N0P MOL     1       4.853   9.390  -2.627  1.00  0.00    -0.153 N 
ATOM     16  H0Q MOL     1       4.704  10.381  -2.730  1.00  0.00     0.257 HD
ATOM     17  H0R MOL     1       5.522   9.329  -1.866  1.00  0.00     0.244 HD
ATOM     18  H0S MOL     1       5.232   9.053  -3.501  1.00  0.00     0.246 HD
ENDBRANCH  14  15
ENDBRANCH   6  14
BRANCH   4  19
ATOM     19  C0A MOL     1      -0.717  10.577  -4.238  1.00  0.00    -0.219 C 
BRANCH  19  20
ATOM     20  C0B MOL     1      -1.932   9.622  -4.000  1.00  0.00     0.819 C 
ATOM     21  N0C MOL     1      -1.666   8.391  -3.689  1.00  0.00    -0.993 N 
ATOM     22  H13 MOL     1      -0.681   8.161  -3.578  1.00  0.00     0.395 HD
ATOM     23  H14 MOL     1      -2.402   7.714  -3.607  1.00  0.00     0.440 HD
ATOM     24  O0D MOL     1      -3.072  10.049  -4.023  1.00  0.00    -0.614 OA
ENDBRANCH  19  20
ENDBRANCH   4  19
BRANCH   1  25
ATOM     25  C01 MOL     1       3.001  10.077   0.366  1.00  0.00    -0.066 C 
ATOM     26  C00 MOL     1       4.117  11.225   0.461  1.00  0.00    -0.126 C 
ENDBRANCH   1  25
BRANCH   2  27
ATOM     27  C04 MOL     1       0.442  11.856   0.374  1.00  0.00    -0.266 C 
BRANCH  27  28
ATOM     28  C05 MOL     1       0.605  13.350   0.248  1.00  0.00     0.870 C 
ATOM     29  O06 MOL     1      -0.288  14.154   0.428  1.00  0.00    -0.820 OA
ATOM     30  O07 MOL     1       1.778  13.799   0.013  1.00  0.00    -0.676 OA
ENDBRANCH  27  28
ENDBRANCH   2  27
TORSDOF 9
ENDMDL
MODEL 6
REMARK VINA RESULT:      -5.6     13.498     16.887
REMARK  9 active torsions:
REMARK  status: ('A' for Active; 'I' for Inactive)
REMARK    1  A    between atoms: C01_2  and  C02_3 
REMARK    2  A    between atoms: C03_4  and  C04_5 
REMARK    3  A    between atoms: C04_5  and  C05_6 
REMARK    4  A    between atoms: C09_10  and  C0A_11 
REMARK    5  A    between atoms: C0A_11  and  C0B_12 
REMARK       I    between atoms: C0B_12  and  N0C_13 
REMARK    6  A    between atoms: C0E_15  and  C0F_16 
REMARK    7  A    between atoms: C0F_16  and  C0G_17 
REMARK    8  A    between atoms: C0N_23  and  C0O_24 
REMARK    9  A    between atoms: C0O_24  and  N0P_25 
ROOT
ATOM      1  C02 MOL     1      -4.226   6.882 -20.907  1.00  0.00    -0.044 C 
ATOM      2  C03 MOL     1      -3.833   5.908 -19.978  1.00  0.00     0.129 C 
ATOM      3  C08 MOL     1      -2.445   5.700 -19.603  1.00  0.00    -0.316 C 
ATOM      4  C09 MOL     1      -1.501   6.590 -20.079  1.00  0.00     0.109 C 
ATOM      5  C0E MOL     1      -1.801   7.514 -21.037  1.00  0.00    -0.064 C 
ATOM      6  C0N MOL     1      -3.159   7.733 -21.373  1.00  0.00    -0.120 C 
ENDROOT
BRANCH   5   7
ATOM      7  C0F MOL     1      -0.686   8.382 -21.599  1.00  0.00     0.047 C 
BRANCH   7   8
ATOM      8  C0G MOL     1      -0.012   7.989 -22.886  1.00  0.00     0.171 C 
ATOM      9  C0M MOL     1      -0.327   8.624 -24.105  1.00  0.00    -0.195 C 
ATOM     10  C0K MOL     1       0.302   8.233 -25.315  1.00  0.00    -0.062 C 
ATOM     11  C0J MOL     1       1.116   7.099 -25.388  1.00  0.00    -0.135 C 
ATOM     12  C0I MOL     1       1.388   6.457 -24.143  1.00  0.00    -0.071 C 
ATOM     13  C0H MOL     1       0.861   6.950 -22.968  1.00  0.00    -0.152 C 
ENDBRANCH   7   8
ENDBRANCH   5   7
BRANCH   6  14
ATOM     14  C0O MOL     1      -3.566   8.834 -22.406  1.00  0.00     0.092 C 
BRANCH  14  15
ATOM     15  N0P MOL     1      -3.648  10.239 -21.893  1.00  0.00    -0.153 N 
ATOM     16  H0Q MOL     1      -4.593  10.463 -21.625  1.00  0.00     0.257 HD
ATOM     17  H0R MOL     1      -3.139  10.273 -21.015  1.00  0.00     0.244 HD
ATOM     18  H0S MOL     1      -3.345  10.951 -22.542  1.00  0.00     0.246 HD
ENDBRANCH  14  15
ENDBRANCH   6  14
BRANCH   4  19
ATOM     19  C0A MOL     1      -0.106   6.509 -19.417  1.00  0.00    -0.219 C 
BRANCH  19  20
ATOM     20  C0B MOL     1       0.026   7.261 -18.053  1.00  0.00     0.819 C 
ATOM     21  N0C MOL     1       0.132   8.554 -18.097  1.00  0.00    -0.993 N 
ATOM     22  H13 MOL     1       0.072   8.975 -19.021  1.00  0.00     0.395 HD
ATOM     23  H14 MOL     1       0.304   9.081 -17.261  1.00  0.00     0.440 HD
ATOM     24  O0D MOL     1      -0.056   6.656 -16.999  1.00  0.00    -0.614 OA
ENDBRANCH  19  20
ENDBRANCH   4  19
BRANCH   1  25
ATOM     25  C01 MOL     1      -5.689   7.083 -21.356  1.00  0.00    -0.066 C 
ATOM     26  C00 MOL     1      -6.514   8.003 -20.333  1.00  0.00    -0.126 C 
ENDBRANCH   1  25
BRANCH   2  27
ATOM     27  C04 MOL     1      -4.757   4.893 -19.344  1.00  0.00    -0.266 C 
BRANCH  27  28
ATOM     28  C05 MOL     1      -5.042   5.108 -17.879  1.00  0.00     0.870 C 
ATOM     29  O06 MOL     1      -4.504   4.492 -16.979  1.00  0.00    -0.820 OA
ATOM     30  O07 MOL     1      -5.844   6.051 -17.564  1.00  0.00    -0.676 OA
ENDBRANCH  27  28
ENDBRANCH   2  27
TORSDOF 9
ENDMDL
MODEL 7
REMARK VINA RESULT:      -5.6     14.028     16.821
REMARK  9 active torsions:
REMARK  status: ('A' for Active; 'I' for Inactive)
REMARK    1  A    between atoms: C01_2  and  C02_3 
REMARK    2  A    between atoms: C03_4  and  C04_5 
REMARK    3  A    between atoms: C04_5  and  C05_6 
REMARK    4  A    between atoms: C09_10  and  C0A_11 
REMARK    5  A    between atoms: C0A_11  and  C0B_12 
REMARK       I    between atoms: C0B_12  and  N0C_13 
REMARK    6  A    between atoms: C0E_15  and  C0F_16 
REMARK    7  A    between atoms: C0F_16  and  C0G_17 
REMARK    8  A    between atoms: C0N_23  and  C0O_24 
REMARK    9  A    between atoms: C0O_24  and  N0P_25 
ROOT
ATOM      1  C02 MOL     1      -0.827   8.273 -20.851  1.00  0.00    -0.044 C 
ATOM      2  C03 MOL     1      -0.723   6.972 -20.339  1.00  0.00     0.129 C 
ATOM      3  C08 MOL     1      -1.885   6.180 -19.977  1.00  0.00    -0.316 C 
ATOM      4  C09 MOL     1      -3.137   6.681 -20.282  1.00  0.00     0.109 C 
ATOM      5  C0E MOL     1      -3.313   7.963 -20.715  1.00  0.00    -0.064 C 
ATOM      6  C0N MOL     1      -2.177   8.717 -21.097  1.00  0.00    -0.120 C 
ENDROOT
BRANCH   5   7
ATOM      7  C0F MOL     1      -4.727   8.483 -20.919  1.00  0.00     0.047 C 
BRANCH   7   8
ATOM      8  C0G MOL     1      -5.474   8.139 -22.179  1.00  0.00     0.171 C 
ATOM      9  C0M MOL     1      -5.128   8.713 -23.420  1.00  0.00    -0.195 C 
ATOM     10  C0K MOL     1      -5.852   8.394 -24.598  1.00  0.00    -0.062 C 
ATOM     11  C0J MOL     1      -7.034   7.649 -24.557  1.00  0.00    -0.135 C 
ATOM     12  C0I MOL     1      -7.376   7.110 -23.280  1.00  0.00    -0.071 C 
ATOM     13  C0H MOL     1      -6.571   7.336 -22.184  1.00  0.00    -0.152 C 
ENDBRANCH   7   8
ENDBRANCH   5   7
BRANCH   6  14
ATOM     14  C0O MOL     1      -2.326  10.162 -21.676  1.00  0.00     0.092 C 
BRANCH  14  15
ATOM     15  N0P MOL     1      -2.128  10.317 -23.152  1.00  0.00    -0.153 N 
ATOM     16  H0Q MOL     1      -2.990  10.148 -23.644  1.00  0.00     0.257 HD
ATOM     17  H0R MOL     1      -1.940  11.298 -23.333  1.00  0.00     0.244 HD
ATOM     18  H0S MOL     1      -1.429   9.710 -23.557  1.00  0.00     0.246 HD
ENDBRANCH  14  15
ENDBRANCH   6  14
BRANCH   4  19
ATOM     19  C0A MOL     1      -4.310   5.682 -20.155  1.00  0.00    -0.219 C 
BRANCH  19  20
ATOM     20  C0B MOL     1      -4.870   5.496 -18.707  1.00  0.00     0.819 C 
ATOM     21  N0C MOL     1      -4.404   4.502 -18.015  1.00  0.00    -0.993 N 
ATOM     22  H13 MOL     1      -3.673   3.952 -18.460  1.00  0.00     0.395 HD
ATOM     23  H14 MOL     1      -4.787   4.284 -17.114  1.00  0.00     0.440 HD
ATOM     24  O0D MOL     1      -5.645   6.306 -18.232  1.00  0.00    -0.614 OA
ENDBRANCH  19  20
ENDBRANCH   4  19
BRANCH   1  25
ATOM     25  C01 MOL     1       0.398   9.149 -21.194  1.00  0.00    -0.066 C 
ATOM     26  C00 MOL     1       0.875  10.033 -19.943  1.00  0.00    -0.126 C 
ENDBRANCH   1  25
BRANCH   2  27
ATOM     27  C04 MOL     1       0.575   6.279 -19.992  1.00  0.00    -0.266 C 
BRANCH  27  28
ATOM     28  C05 MOL     1       0.885   6.189 -18.519  1.00  0.00     0.870 C 
ATOM     29  O06 MOL     1       1.358   5.210 -17.977  1.00  0.00    -0.820 OA
ATOM     30  O07 MOL     1       0.709   7.239 -17.812  1.00  0.00    -0.676 OA
ENDBRANCH  27  28
ENDBRANCH   2  27
TORSDOF 9
ENDMDL
MODEL 8
REMARK VINA RESULT:      -5.5      2.520      4.027
REMARK  9 active torsions:
REMARK  status: ('A' for Active; 'I' for Inactive)
REMARK    1  A    between atoms: C01_2  and  C02_3 
REMARK    2  A    between atoms: C03_4  and  C04_5 
REMARK    3  A    between atoms: C04_5  and  C05_6 
REMARK    4  A    between atoms: C09_10  and  C0A_11 
REMARK    5  A    between atoms: C0A_11  and  C0B_12 
REMARK       I    between atoms: C0B_12  and  N0C_13 
REMARK    6  A    between atoms: C0E_15  and  C0F_16 
REMARK    7  A    between atoms: C0F_16  and  C0G_17 
REMARK    8  A    between atoms: C0N_23  and  C0O_24 
REMARK    9  A    between atoms: C0O_24  and  N0P_25 
ROOT
ATOM      1  C02 MOL     1       1.088   7.272  -5.792  1.00  0.00    -0.044 C 
ATOM      2  C03 MOL     1       0.230   7.533  -4.715  1.00  0.00     0.129 C 
ATOM      3  C08 MOL     1      -0.044   8.879  -4.243  1.00  0.00    -0.316 C 
ATOM      4  C09 MOL     1       0.453   9.941  -4.975  1.00  0.00     0.109 C 
ATOM      5  C0E MOL     1       1.349   9.759  -5.988  1.00  0.00    -0.064 C 
ATOM      6  C0N MOL     1       1.585   8.447  -6.464  1.00  0.00    -0.120 C 
ENDROOT
BRANCH   5   7
ATOM      7  C0F MOL     1       1.944  10.980  -6.673  1.00  0.00     0.047 C 
BRANCH   7   8
ATOM      8  C0G MOL     1       3.350  11.406  -6.346  1.00  0.00     0.171 C 
ATOM      9  C0M MOL     1       3.696  11.878  -5.063  1.00  0.00    -0.195 C 
ATOM     10  C0K MOL     1       5.021  12.294  -4.772  1.00  0.00    -0.062 C 
ATOM     11  C0J MOL     1       5.987  12.426  -5.773  1.00  0.00    -0.135 C 
ATOM     12  C0I MOL     1       5.595  11.974  -7.069  1.00  0.00    -0.071 C 
ATOM     13  C0H MOL     1       4.337  11.452  -7.279  1.00  0.00    -0.152 C 
ENDBRANCH   7   8
ENDBRANCH   5   7
BRANCH   6  14
ATOM     14  C0O MOL     1       2.541   8.188  -7.675  1.00  0.00     0.092 C 
BRANCH  14  15
ATOM     15  N0P MOL     1       1.932   8.277  -9.041  1.00  0.00    -0.153 N 
ATOM     16  H0Q MOL     1       2.230   7.504  -9.612  1.00  0.00     0.257 HD
ATOM     17  H0R MOL     1       0.933   8.127  -8.940  1.00  0.00     0.244 HD
ATOM     18  H0S MOL     1       2.144   9.124  -9.550  1.00  0.00     0.246 HD
ENDBRANCH  14  15
ENDBRANCH   6  14
BRANCH   4  19
ATOM     19  C0A MOL     1      -0.111  11.333  -4.610  1.00  0.00    -0.219 C 
BRANCH  19  20
ATOM     20  C0B MOL     1      -1.098  11.352  -3.397  1.00  0.00     0.819 C 
ATOM     21  N0C MOL     1      -2.328  11.009  -3.629  1.00  0.00    -0.993 N 
ATOM     22  H13 MOL     1      -2.536  10.708  -4.578  1.00  0.00     0.395 HD
ATOM     23  H14 MOL     1      -3.023  11.082  -2.909  1.00  0.00     0.440 HD
ATOM     24  O0D MOL     1      -0.697  11.595  -2.274  1.00  0.00    -0.614 OA
ENDBRANCH  19  20
ENDBRANCH   4  19
BRANCH   1  25
ATOM     25  C01 MOL     1       1.431   5.846  -6.276  1.00  0.00    -0.066 C 
ATOM     26  C00 MOL     1       2.663   5.214  -5.465  1.00  0.00    -0.126 C 
ENDBRANCH   1  25
BRANCH   2  27
ATOM     27  C04 MOL     1      -0.418   6.478  -3.848  1.00  0.00    -0.266 C 
BRANCH  27  28
ATOM     28  C05 MOL     1      -1.681   6.908  -3.144  1.00  0.00     0.870 C 
ATOM     29  O06 MOL     1      -1.704   7.540  -2.106  1.00  0.00    -0.820 OA
ATOM     30  O07 MOL     1      -2.794   6.658  -3.720  1.00  0.00    -0.676 OA
ENDBRANCH  27  28
ENDBRANCH   2  27
TORSDOF 9
ENDMDL
MODEL 9
REMARK VINA RESULT:      -5.5      8.657     12.401
REMARK  9 active torsions:
REMARK  status: ('A' for Active; 'I' for Inactive)
REMARK    1  A    between atoms: C01_2  and  C02_3 
REMARK    2  A    between atoms: C03_4  and  C04_5 
REMARK    3  A    between atoms: C04_5  and  C05_6 
REMARK    4  A    between atoms: C09_10  and  C0A_11 
REMARK    5  A    between atoms: C0A_11  and  C0B_12 
REMARK       I    between atoms: C0B_12  and  N0C_13 
REMARK    6  A    between atoms: C0E_15  and  C0F_16 
REMARK    7  A    between atoms: C0F_16  and  C0G_17 
REMARK    8  A    between atoms: C0N_23  and  C0O_24 
REMARK    9  A    between atoms: C0O_24  and  N0P_25 
ROOT
ATOM      1  C02 MOL     1      -3.432  12.499   5.984  1.00  0.00    -0.044 C 
ATOM      2  C03 MOL     1      -3.221  11.327   6.724  1.00  0.00     0.129 C 
ATOM      3  C08 MOL     1      -2.006  10.538   6.610  1.00  0.00    -0.316 C 
ATOM      4  C09 MOL     1      -0.970  11.043   5.846  1.00  0.00     0.109 C 
ATOM      5  C0E MOL     1      -1.132  12.138   5.048  1.00  0.00    -0.064 C 
ATOM      6  C0N MOL     1      -2.304  12.919   5.189  1.00  0.00    -0.120 C 
ENDROOT
BRANCH   5   7
ATOM      7  C0F MOL     1       0.015  12.567   4.146  1.00  0.00     0.047 C 
BRANCH   7   8
ATOM      8  C0G MOL     1       0.044  12.116   2.711  1.00  0.00     0.171 C 
ATOM      9  C0M MOL     1       0.061  10.748   2.370  1.00  0.00    -0.195 C 
ATOM     10  C0K MOL     1       0.107  10.335   1.013  1.00  0.00    -0.062 C 
ATOM     11  C0J MOL     1       0.316  11.246  -0.026  1.00  0.00    -0.135 C 
ATOM     12  C0I MOL     1       0.330  12.622   0.355  1.00  0.00    -0.071 C 
ATOM     13  C0H MOL     1       0.149  12.987   1.672  1.00  0.00    -0.152 C 
ENDBRANCH   7   8
ENDBRANCH   5   7
BRANCH   6  14
ATOM     14  C0O MOL     1      -2.505  14.228   4.357  1.00  0.00     0.092 C 
BRANCH  14  15
ATOM     15  N0P MOL     1      -2.039  15.503   4.988  1.00  0.00    -0.153 N 
ATOM     16  H0Q MOL     1      -2.808  15.982   5.428  1.00  0.00     0.257 HD
ATOM     17  H0R MOL     1      -1.436  15.255   5.767  1.00  0.00     0.244 HD
ATOM     18  H0S MOL     1      -1.601  16.159   4.357  1.00  0.00     0.246 HD
ENDBRANCH  14  15
ENDBRANCH   6  14
BRANCH   4  19
ATOM     19  C0A MOL     1       0.390  10.325   6.000  1.00  0.00    -0.219 C 
BRANCH  19  20
ATOM     20  C0B MOL     1       1.064  10.472   7.404  1.00  0.00     0.819 C 
ATOM     21  N0C MOL     1       1.715   9.446   7.859  1.00  0.00    -0.993 N 
ATOM     22  H13 MOL     1       1.772   8.643   7.238  1.00  0.00     0.395 HD
ATOM     23  H14 MOL     1       2.095   9.455   8.787  1.00  0.00     0.440 HD
ATOM     24  O0D MOL     1       1.044  11.538   7.993  1.00  0.00    -0.614 OA
ENDBRANCH  19  20
ENDBRANCH   4  19
BRANCH   1  25
ATOM     25  C01 MOL     1      -4.736  13.322   6.054  1.00  0.00    -0.066 C 
ATOM     26  C00 MOL     1      -4.750  14.325   7.305  1.00  0.00    -0.126 C 
ENDBRANCH   1  25
BRANCH   2  27
ATOM     27  C04 MOL     1      -4.244  10.678   7.628  1.00  0.00    -0.266 C 
BRANCH  27  28
ATOM     28  C05 MOL     1      -4.476   9.208   7.387  1.00  0.00     0.870 C 
ATOM     29  O06 MOL     1      -4.257   8.337   8.207  1.00  0.00    -0.820 OA
ATOM     30  O07 MOL     1      -5.010   8.866   6.278  1.00  0.00    -0.676 OA
ENDBRANCH  27  28
ENDBRANCH   2  27
TORSDOF 9
ENDMDL
MODEL 10
REMARK VINA RESULT:      -5.5     12.006     15.462
REMARK  9 active torsions:
REMARK  status: ('A' for Active; 'I' for Inactive)
REMARK    1  A    between atoms: C01_2  and  C02_3 
REMARK    2  A    between atoms: C03_4  and  C04_5 
REMARK    3  A    between atoms: C04_5  and  C05_6 
REMARK    4  A    between atoms: C09_10  and  C0A_11 
REMARK    5  A    between atoms: C0A_11  and  C0B_12 
REMARK       I    between atoms: C0B_12  and  N0C_13 
REMARK    6  A    between atoms: C0E_15  and  C0F_16 
REMARK    7  A    between atoms: C0F_16  and  C0G_17 
REMARK    8  A    between atoms: C0N_23  and  C0O_24 
REMARK    9  A    between atoms: C0O_24  and  N0P_25 
ROOT
ATOM      1  C02 MOL     1       0.494   7.892 -17.308  1.00  0.00    -0.044 C 
ATOM      2  C03 MOL     1       0.771   9.262 -17.409  1.00  0.00     0.129 C 
ATOM      3  C08 MOL     1       0.567  10.012 -18.636  1.00  0.00    -0.316 C 
ATOM      4  C09 MOL     1      -0.053   9.375 -19.695  1.00  0.00     0.109 C 
ATOM      5  C0E MOL     1      -0.285   8.030 -19.689  1.00  0.00    -0.064 C 
ATOM      6  C0N MOL     1      -0.115   7.313 -18.481  1.00  0.00    -0.120 C 
ENDROOT
BRANCH   5   7
ATOM      7  C0F MOL     1      -0.864   7.378 -20.935  1.00  0.00     0.047 C 
BRANCH   7   8
ATOM      8  C0G MOL     1      -2.356   7.309 -21.116  1.00  0.00     0.171 C 
ATOM      9  C0M MOL     1      -3.072   8.360 -21.725  1.00  0.00    -0.195 C 
ATOM     10  C0K MOL     1      -4.482   8.291 -21.875  1.00  0.00    -0.062 C 
ATOM     11  C0J MOL     1      -5.237   7.279 -21.274  1.00  0.00    -0.135 C 
ATOM     12  C0I MOL     1      -4.485   6.249 -20.634  1.00  0.00    -0.071 C 
ATOM     13  C0H MOL     1      -3.106   6.287 -20.626  1.00  0.00    -0.152 C 
ENDBRANCH   7   8
ENDBRANCH   5   7
BRANCH   6  14
ATOM     14  C0O MOL     1      -0.443   5.786 -18.397  1.00  0.00     0.092 C 
BRANCH  14  15
ATOM     15  N0P MOL     1      -1.767   5.415 -17.804  1.00  0.00    -0.153 N 
ATOM     16  H0Q MOL     1      -1.899   5.875 -16.918  1.00  0.00     0.257 HD
ATOM     17  H0R MOL     1      -2.489   5.822 -18.392  1.00  0.00     0.244 HD
ATOM     18  H0S MOL     1      -1.907   4.426 -17.651  1.00  0.00     0.246 HD
ENDBRANCH  14  15
ENDBRANCH   6  14
BRANCH   4  19
ATOM     19  C0A MOL     1      -0.516  10.290 -20.853  1.00  0.00    -0.219 C 
BRANCH  19  20
ATOM     20  C0B MOL     1       0.633  10.856 -21.750  1.00  0.00     0.819 C 
ATOM     21  N0C MOL     1       0.572  12.114 -22.066  1.00  0.00    -0.993 N 
ATOM     22  H13 MOL     1      -0.198  12.639 -21.660  1.00  0.00     0.395 HD
ATOM     23  H14 MOL     1       1.235  12.511 -22.706  1.00  0.00     0.440 HD
ATOM     24  O0D MOL     1       1.582  10.158 -22.058  1.00  0.00    -0.614 OA
ENDBRANCH  19  20
ENDBRANCH   4  19
BRANCH   1  25
ATOM     25  C01 MOL     1       0.752   7.066 -16.029  1.00  0.00    -0.066 C 
ATOM     26  C00 MOL     1       2.203   6.381 -16.036  1.00  0.00    -0.126 C 
ENDBRANCH   1  25
BRANCH   2  27
ATOM     27  C04 MOL     1       1.410  10.098 -16.324  1.00  0.00    -0.266 C 
BRANCH  27  28
ATOM     28  C05 MOL     1       2.917  10.059 -16.284  1.00  0.00     0.870 C 
ATOM     29  O06 MOL     1       3.638  10.544 -17.134  1.00  0.00    -0.820 OA
ATOM     30  O07 MOL     1       3.469   9.550 -15.250  1.00  0.00    -0.676 OA
ENDBRANCH  27  28
ENDBRANCH   2  27
TORSDOF 9
ENDMDL
MODEL 11
REMARK VINA RESULT:      -5.4     14.063     16.280
REMARK  9 active torsions:
REMARK  status: ('A' for Active; 'I' for Inactive)
REMARK    1  A    between atoms: C01_2  and  C02_3 
REMARK    2  A    between atoms: C03_4  and  C04_5 
REMARK    3  A    between atoms: C04_5  and  C05_6 
REMARK    4  A    between atoms: C09_10  and  C0A_11 
REMARK    5  A    between atoms: C0A_11  and  C0B_12 
REMARK       I    between atoms: C0B_12  and  N0C_13 
REMARK    6  A    between atoms: C0E_15  and  C0F_16 
REMARK    7  A    between atoms: C0F_16  and  C0G_17 
REMARK    8  A    between atoms: C0N_23  and  C0O_24 
REMARK    9  A    between atoms: C0O_24  and  N0P_25 
ROOT
ATOM      1  C02 MOL     1      -3.039   5.702 -19.417  1.00  0.00    -0.044 C 
ATOM      2  C03 MOL     1      -3.662   6.373 -20.478  1.00  0.00     0.129 C 
ATOM      3  C08 MOL     1      -2.992   7.402 -21.254  1.00  0.00    -0.316 C 
ATOM      4  C09 MOL     1      -1.647   7.622 -21.020  1.00  0.00     0.109 C 
ATOM      5  C0E MOL     1      -0.999   7.056 -19.961  1.00  0.00    -0.064 C 
ATOM      6  C0N MOL     1      -1.647   6.031 -19.231  1.00  0.00    -0.120 C 
ENDROOT
BRANCH   5   7
ATOM      7  C0F MOL     1       0.450   7.435 -19.698  1.00  0.00     0.047 C 
BRANCH   7   8
ATOM      8  C0G MOL     1       1.548   6.461 -20.028  1.00  0.00     0.171 C 
ATOM      9  C0M MOL     1       1.517   5.691 -21.210  1.00  0.00    -0.195 C 
ATOM     10  C0K MOL     1       2.549   4.762 -21.502  1.00  0.00    -0.062 C 
ATOM     11  C0J MOL     1       3.535   4.439 -20.566  1.00  0.00    -0.135 C 
ATOM     12  C0I MOL     1       3.519   5.211 -19.365  1.00  0.00    -0.071 C 
ATOM     13  C0H MOL     1       2.575   6.197 -19.177  1.00  0.00    -0.152 C 
ENDBRANCH   7   8
ENDBRANCH   5   7
BRANCH   6  14
ATOM     14  C0O MOL     1      -0.921   5.293 -18.060  1.00  0.00     0.092 C 
BRANCH  14  15
ATOM     15  N0P MOL     1      -0.480   6.139 -16.905  1.00  0.00    -0.153 N 
ATOM     16  H0Q MOL     1      -0.035   6.980 -17.232  1.00  0.00     0.257 HD
ATOM     17  H0R MOL     1      -1.316   6.478 -16.438  1.00  0.00     0.244 HD
ATOM     18  H0S MOL     1       0.162   5.691 -16.266  1.00  0.00     0.246 HD
ENDBRANCH  14  15
ENDBRANCH   6  14
BRANCH   4  19
ATOM     19  C0A MOL     1      -0.918   8.500 -22.064  1.00  0.00    -0.219 C 
BRANCH  19  20
ATOM     20  C0B MOL     1      -1.025  10.041 -21.825  1.00  0.00     0.819 C 
ATOM     21  N0C MOL     1      -2.061  10.647 -22.320  1.00  0.00    -0.993 N 
ATOM     22  H13 MOL     1      -2.745  10.054 -22.784  1.00  0.00     0.395 HD
ATOM     23  H14 MOL     1      -2.140  11.646 -22.270  1.00  0.00     0.440 HD
ATOM     24  O0D MOL     1      -0.210  10.620 -21.130  1.00  0.00    -0.614 OA
ENDBRANCH  19  20
ENDBRANCH   4  19
BRANCH   1  25
ATOM     25  C01 MOL     1      -3.752   4.642 -18.549  1.00  0.00    -0.066 C 
ATOM     26  C00 MOL     1      -5.079   5.221 -17.859  1.00  0.00    -0.126 C 
ENDBRANCH   1  25
BRANCH   2  27
ATOM     27  C04 MOL     1      -5.112   6.208 -20.875  1.00  0.00    -0.266 C 
BRANCH  27  28
ATOM     28  C05 MOL     1      -5.919   7.481 -20.913  1.00  0.00     0.870 C 
ATOM     29  O06 MOL     1      -6.452   7.925 -21.911  1.00  0.00    -0.820 OA
ATOM     30  O07 MOL     1      -6.117   8.089 -19.806  1.00  0.00    -0.676 OA
ENDBRANCH  27  28
ENDBRANCH   2  27
TORSDOF 9
ENDMDL
MODEL 12
REMARK VINA RESULT:      -5.4     12.477     15.192
REMARK  9 active torsions:
REMARK  status: ('A' for Active; 'I' for Inactive)
REMARK    1  A    between atoms: C01_2  and  C02_3 
REMARK    2  A    between atoms: C03_4  and  C04_5 
REMARK    3  A    between atoms: C04_5  and  C05_6 
REMARK    4  A    between atoms: C09_10  and  C0A_11 
REMARK    5  A    between atoms: C0A_11  and  C0B_12 
REMARK       I    between atoms: C0B_12  and  N0C_13 
REMARK    6  A    between atoms: C0E_15  and  C0F_16 
REMARK    7  A    between atoms: C0F_16  and  C0G_17 
REMARK    8  A    between atoms: C0N_23  and  C0O_24 
REMARK    9  A    between atoms: C0O_24  and  N0P_25 
ROOT
ATOM      1  C02 MOL     1      -2.516   5.740 -19.348  1.00  0.00    -0.044 C 
ATOM      2  C03 MOL     1      -3.189   6.457 -20.347  1.00  0.00     0.129 C 
ATOM      3  C08 MOL     1      -2.553   7.515 -21.113  1.00  0.00    -0.316 C 
ATOM      4  C09 MOL     1      -1.197   7.722 -20.938  1.00  0.00     0.109 C 
ATOM      5  C0E MOL     1      -0.499   7.111 -19.937  1.00  0.00    -0.064 C 
ATOM      6  C0N MOL     1      -1.115   6.059 -19.218  1.00  0.00    -0.120 C 
ENDROOT
BRANCH   5   7
ATOM      7  C0F MOL     1       0.963   7.475 -19.731  1.00  0.00     0.047 C 
BRANCH   7   8
ATOM      8  C0G MOL     1       1.371   8.260 -18.514  1.00  0.00     0.171 C 
ATOM      9  C0M MOL     1       0.529   9.245 -17.957  1.00  0.00    -0.195 C 
ATOM     10  C0K MOL     1       0.933   9.992 -16.820  1.00  0.00    -0.062 C 
ATOM     11  C0J MOL     1       2.233   9.916 -16.314  1.00  0.00    -0.135 C 
ATOM     12  C0I MOL     1       3.073   8.935 -16.921  1.00  0.00    -0.071 C 
ATOM     13  C0H MOL     1       2.597   8.137 -17.940  1.00  0.00    -0.152 C 
ENDBRANCH   7   8
ENDBRANCH   5   7
BRANCH   6  14
ATOM     14  C0O MOL     1      -0.335   5.271 -18.116  1.00  0.00     0.092 C 
BRANCH  14  15
ATOM     15  N0P MOL     1      -0.300   5.885 -16.750  1.00  0.00    -0.153 N 
ATOM     16  H0Q MOL     1      -0.096   6.869 -16.810  1.00  0.00     0.257 HD
ATOM     17  H0R MOL     1      -1.245   5.861 -16.380  1.00  0.00     0.244 HD
ATOM     18  H0S MOL     1       0.372   5.478 -16.114  1.00  0.00     0.246 HD
ENDBRANCH  14  15
ENDBRANCH   6  14
BRANCH   4  19
ATOM     19  C0A MOL     1      -0.517   8.640 -21.979  1.00  0.00    -0.219 C 
BRANCH  19  20
ATOM     20  C0B MOL     1      -0.694  10.173 -21.728  1.00  0.00     0.819 C 
ATOM     21  N0C MOL     1      -1.698  10.757 -22.308  1.00  0.00    -0.993 N 
ATOM     22  H13 MOL     1      -2.317  10.153 -22.843  1.00  0.00     0.395 HD
ATOM     23  H14 MOL     1      -1.812  11.752 -22.251  1.00  0.00     0.440 HD
ATOM     24  O0D MOL     1       0.034  10.763 -20.951  1.00  0.00    -0.614 OA
ENDBRANCH  19  20
ENDBRANCH   4  19
BRANCH   1  25
ATOM     25  C01 MOL     1      -3.190   4.647 -18.489  1.00  0.00    -0.066 C 
ATOM     26  C00 MOL     1      -4.679   5.054 -18.054  1.00  0.00    -0.126 C 
ENDBRANCH   1  25
BRANCH   2  27
ATOM     27  C04 MOL     1      -4.657   6.312 -20.678  1.00  0.00    -0.266 C 
BRANCH  27  28
ATOM     28  C05 MOL     1      -5.473   7.574 -20.555  1.00  0.00     0.870 C 
ATOM     29  O06 MOL     1      -5.636   8.185 -19.516  1.00  0.00    -0.820 OA
ATOM     30  O07 MOL     1      -5.957   8.073 -21.626  1.00  0.00    -0.676 OA
ENDBRANCH  27  28
ENDBRANCH   2  27
TORSDOF 9
ENDMDL
MODEL 13
REMARK VINA RESULT:      -5.4      3.179      4.642
REMARK  9 active torsions:
REMARK  status: ('A' for Active; 'I' for Inactive)
REMARK    1  A    between atoms: C01_2  and  C02_3 
REMARK    2  A    between atoms: C03_4  and  C04_5 
REMARK    3  A    between atoms: C04_5  and  C05_6 
REMARK    4  A    between atoms: C09_10  and  C0A_11 
REMARK    5  A    between atoms: C0A_11  and  C0B_12 
REMARK       I    between atoms: C0B_12  and  N0C_13 
REMARK    6  A    between atoms: C0E_15  and  C0F_16 
REMARK    7  A    between atoms: C0F_16  and  C0G_17 
REMARK    8  A    between atoms: C0N_23  and  C0O_24 
REMARK    9  A    between atoms: C0O_24  and  N0P_25 
ROOT
ATOM      1  C02 MOL     1       0.523   6.509  -3.768  1.00  0.00    -0.044 C 
ATOM      2  C03 MOL     1      -0.587   7.087  -3.138  1.00  0.00     0.129 C 
ATOM      3  C08 MOL     1      -0.464   8.152  -2.158  1.00  0.00    -0.316 C 
ATOM      4  C09 MOL     1       0.786   8.703  -1.948  1.00  0.00     0.109 C 
ATOM      5  C0E MOL     1       1.916   8.145  -2.473  1.00  0.00    -0.064 C 
ATOM      6  C0N MOL     1       1.786   7.131  -3.451  1.00  0.00    -0.120 C 
ENDROOT
BRANCH   5   7
ATOM      7  C0F MOL     1       3.268   8.735  -2.104  1.00  0.00     0.047 C 
BRANCH   7   8
ATOM      8  C0G MOL     1       3.741   9.994  -2.780  1.00  0.00     0.171 C 
ATOM      9  C0M MOL     1       4.593  10.906  -2.123  1.00  0.00    -0.195 C 
ATOM     10  C0K MOL     1       5.019  12.098  -2.764  1.00  0.00    -0.062 C 
ATOM     11  C0J MOL     1       4.479  12.509  -3.986  1.00  0.00    -0.135 C 
ATOM     12  C0I MOL     1       3.592  11.580  -4.610  1.00  0.00    -0.071 C 
ATOM     13  C0H MOL     1       3.308  10.371  -4.012  1.00  0.00    -0.152 C 
ENDBRANCH   7   8
ENDBRANCH   5   7
BRANCH   6  14
ATOM     14  C0O MOL     1       3.044   6.512  -4.144  1.00  0.00     0.092 C 
BRANCH  14  15
ATOM     15  N0P MOL     1       3.453   7.114  -5.453  1.00  0.00    -0.153 N 
ATOM     16  H0Q MOL     1       4.430   7.358  -5.440  1.00  0.00     0.257 HD
ATOM     17  H0R MOL     1       3.401   6.382  -6.155  1.00  0.00     0.244 HD
ATOM     18  H0S MOL     1       2.942   7.943  -5.723  1.00  0.00     0.246 HD
ENDBRANCH  14  15
ENDBRANCH   6  14
BRANCH   4  19
ATOM     19  C0A MOL     1       0.814  10.016  -1.133  1.00  0.00    -0.219 C 
BRANCH  19  20
ATOM     20  C0B MOL     1       0.765   9.835   0.419  1.00  0.00     0.819 C 
ATOM     21  N0C MOL     1       1.900   9.787   1.047  1.00  0.00    -0.993 N 
ATOM     22  H13 MOL     1       2.731   9.921   0.476  1.00  0.00     0.395 HD
ATOM     23  H14 MOL     1       1.931   9.589   2.030  1.00  0.00     0.440 HD
ATOM     24  O0D MOL     1      -0.300   9.828   1.010  1.00  0.00    -0.614 OA
ENDBRANCH  19  20
ENDBRANCH   4  19
BRANCH   1  25
ATOM     25  C01 MOL     1       0.415   5.342  -4.774  1.00  0.00    -0.066 C 
ATOM     26  C00 MOL     1       0.034   3.959  -4.056  1.00  0.00    -0.126 C 
ENDBRANCH   1  25
BRANCH   2  27
ATOM     27  C04 MOL     1      -2.016   6.618  -3.300  1.00  0.00    -0.266 C 
BRANCH  27  28
ATOM     28  C05 MOL     1      -2.791   7.285  -4.408  1.00  0.00     0.870 C 
ATOM     29  O06 MOL     1      -3.997   7.211  -4.540  1.00  0.00    -0.820 OA
ATOM     30  O07 MOL     1      -2.145   8.037  -5.213  1.00  0.00    -0.676 OA
ENDBRANCH  27  28
ENDBRANCH   2  27
TORSDOF 9
ENDMDL
MODEL 14
REMARK VINA RESULT:      -5.4     14.839     18.309
REMARK  9 active torsions:
REMARK  status: ('A' for Active; 'I' for Inactive)
REMARK    1  A    between atoms: C01_2  and  C02_3 
REMARK    2  A    between atoms: C03_4  and  C04_5 
REMARK    3  A    between atoms: C04_5  and  C05_6 
REMARK    4  A    between atoms: C09_10  and  C0A_11 
REMARK    5  A    between atoms: C0A_11  and  C0B_12 
REMARK       I    between atoms: C0B_12  and  N0C_13 
REMARK    6  A    between atoms: C0E_15  and  C0F_16 
REMARK    7  A    between atoms: C0F_16  and  C0G_17 
REMARK    8  A    between atoms: C0N_23  and  C0O_24 
REMARK    9  A    between atoms: C0O_24  and  N0P_25 
ROOT
ATOM      1  C02 MOL     1     -11.410  -5.973   0.027  1.00  0.00    -0.044 C 
ATOM      2  C03 MOL     1     -10.320  -5.320   0.619  1.00  0.00     0.129 C 
ATOM      3  C08 MOL     1      -9.316  -4.613  -0.156  1.00  0.00    -0.316 C 
ATOM      4  C09 MOL     1      -9.526  -4.466  -1.515  1.00  0.00     0.109 C 
ATOM      5  C0E MOL     1     -10.525  -5.131  -2.165  1.00  0.00    -0.064 C 
ATOM      6  C0N MOL     1     -11.517  -5.790  -1.400  1.00  0.00    -0.120 C 
ENDROOT
BRANCH   5   7
ATOM      7  C0F MOL     1     -10.624  -5.014  -3.677  1.00  0.00     0.047 C 
BRANCH   7   8
ATOM      8  C0G MOL     1     -11.602  -4.046  -4.288  1.00  0.00     0.171 C 
ATOM      9  C0M MOL     1     -12.715  -4.494  -5.029  1.00  0.00    -0.195 C 
ATOM     10  C0K MOL     1     -13.620  -3.571  -5.614  1.00  0.00    -0.062 C 
ATOM     11  C0J MOL     1     -13.358  -2.198  -5.639  1.00  0.00    -0.135 C 
ATOM     12  C0I MOL     1     -12.205  -1.779  -4.910  1.00  0.00    -0.071 C 
ATOM     13  C0H MOL     1     -11.424  -2.699  -4.242  1.00  0.00    -0.152 C 
ENDBRANCH   7   8
ENDBRANCH   5   7
BRANCH   6  14
ATOM     14  C0O MOL     1     -12.728  -6.500  -2.090  1.00  0.00     0.092 C 
BRANCH  14  15
ATOM     15  N0P MOL     1     -12.488  -7.885  -2.607  1.00  0.00    -0.153 N 
ATOM     16  H0Q MOL     1     -11.501  -8.067  -2.685  1.00  0.00     0.257 HD
ATOM     17  H0R MOL     1     -12.793  -8.535  -1.889  1.00  0.00     0.244 HD
ATOM     18  H0S MOL     1     -12.901  -8.084  -3.507  1.00  0.00     0.246 HD
ENDBRANCH  14  15
ENDBRANCH   6  14
BRANCH   4  19
ATOM     19  C0A MOL     1      -8.598  -3.461  -2.234  1.00  0.00    -0.219 C 
BRANCH  19  20
ATOM     20  C0B MOL     1      -7.069  -3.768  -2.117  1.00  0.00     0.819 C 
ATOM     21  N0C MOL     1      -6.322  -2.861  -1.566  1.00  0.00    -0.993 N 
ATOM     22  H13 MOL     1      -6.807  -2.039  -1.211  1.00  0.00     0.395 HD
ATOM     23  H14 MOL     1      -5.325  -2.967  -1.540  1.00  0.00     0.440 HD
ATOM     24  O0D MOL     1      -6.626  -4.852  -2.452  1.00  0.00    -0.614 OA
ENDBRANCH  19  20
ENDBRANCH   4  19
BRANCH   1  25
ATOM     25  C01 MOL     1     -12.459  -6.772   0.831  1.00  0.00    -0.066 C 
ATOM     26  C00 MOL     1     -13.637  -5.835   1.385  1.00  0.00    -0.126 C 
ENDBRANCH   1  25
BRANCH   2  27
ATOM     27  C04 MOL     1      -9.984  -5.359   2.093  1.00  0.00    -0.266 C 
BRANCH  27  28
ATOM     28  C05 MOL     1     -10.696  -4.337   2.943  1.00  0.00     0.870 C 
ATOM     29  O06 MOL     1     -10.803  -4.407   4.152  1.00  0.00    -0.820 OA
ATOM     30  O07 MOL     1     -11.146  -3.293   2.361  1.00  0.00    -0.676 OA
ENDBRANCH  27  28
ENDBRANCH   2  27
TORSDOF 9
ENDMDL
MODEL 15
REMARK VINA RESULT:      -5.3     20.854     23.193
REMARK  9 active torsions:
REMARK  status: ('A' for Active; 'I' for Inactive)
REMARK    1  A    between atoms: C01_2  and  C02_3 
REMARK    2  A    between atoms: C03_4  and  C04_5 
REMARK    3  A    between atoms: C04_5  and  C05_6 
REMARK    4  A    between atoms: C09_10  and  C0A_11 
REMARK    5  A    between atoms: C0A_11  and  C0B_12 
REMARK       I    between atoms: C0B_12  and  N0C_13 
REMARK    6  A    between atoms: C0E_15  and  C0F_16 
REMARK    7  A    between atoms: C0F_16  and  C0G_17 
REMARK    8  A    between atoms: C0N_23  and  C0O_24 
REMARK    9  A    between atoms: C0O_24  and  N0P_25 
ROOT
ATOM      1  C02 MOL     1     -12.832   1.488  11.954  1.00  0.00    -0.044 C 
ATOM      2  C03 MOL     1     -11.860   2.131  11.175  1.00  0.00     0.129 C 
ATOM      3  C08 MOL     1     -10.454   1.768  11.223  1.00  0.00    -0.316 C 
ATOM      4  C09 MOL     1     -10.093   0.656  11.961  1.00  0.00     0.109 C 
ATOM      5  C0E MOL     1     -10.972   0.029  12.794  1.00  0.00    -0.064 C 
ATOM      6  C0N MOL     1     -12.345   0.366  12.718  1.00  0.00    -0.120 C 
ENDROOT
BRANCH   5   7
ATOM      7  C0F MOL     1     -10.474  -1.114  13.664  1.00  0.00     0.047 C 
BRANCH   7   8
ATOM      8  C0G MOL     1     -10.376  -0.930  15.154  1.00  0.00     0.171 C 
ATOM      9  C0M MOL     1     -10.420  -2.029  16.037  1.00  0.00    -0.195 C 
ATOM     10  C0K MOL     1     -10.344  -1.840  17.441  1.00  0.00    -0.062 C 
ATOM     11  C0J MOL     1     -10.404  -0.568  18.017  1.00  0.00    -0.135 C 
ATOM     12  C0I MOL     1     -10.394   0.524  17.097  1.00  0.00    -0.071 C 
ATOM     13  C0H MOL     1     -10.334   0.297  15.739  1.00  0.00    -0.152 C 
ENDBRANCH   7   8
ENDBRANCH   5   7
BRANCH   6  14
ATOM     14  C0O MOL     1     -13.407  -0.377  13.593  1.00  0.00     0.092 C 
BRANCH  14  15
ATOM     15  N0P MOL     1     -14.013  -1.615  13.006  1.00  0.00    -0.153 N 
ATOM     16  H0Q MOL     1     -14.081  -1.535  12.005  1.00  0.00     0.257 HD
ATOM     17  H0R MOL     1     -13.349  -2.372  13.138  1.00  0.00     0.244 HD
ATOM     18  H0S MOL     1     -14.934  -1.847  13.351  1.00  0.00     0.246 HD
ENDBRANCH  14  15
ENDBRANCH   6  14
BRANCH   4  19
ATOM     19  C0A MOL     1      -8.653   0.140  11.737  1.00  0.00    -0.219 C 
BRANCH  19  20
ATOM     20  C0B MOL     1      -7.545   1.243  11.736  1.00  0.00     0.819 C 
ATOM     21  N0C MOL     1      -7.365   1.903  12.839  1.00  0.00    -0.993 N 
ATOM     22  H13 MOL     1      -7.932   1.611  13.632  1.00  0.00     0.395 HD
ATOM     23  H14 MOL     1      -6.727   2.677  12.872  1.00  0.00     0.440 HD
ATOM     24  O0D MOL     1      -6.831   1.405  10.763  1.00  0.00    -0.614 OA
ENDBRANCH  19  20
ENDBRANCH   4  19
BRANCH   1  25
ATOM     25  C01 MOL     1     -14.322   1.894  11.955  1.00  0.00    -0.066 C 
ATOM     26  C00 MOL     1     -14.619   3.098  12.972  1.00  0.00    -0.126 C 
ENDBRANCH   1  25
BRANCH   2  27
ATOM     27  C04 MOL     1     -12.113   3.331  10.291  1.00  0.00    -0.266 C 
BRANCH  27  28
ATOM     28  C05 MOL     1     -11.236   4.528  10.564  1.00  0.00     0.870 C 
ATOM     29  O06 MOL     1     -11.232   5.151  11.607  1.00  0.00    -0.820 OA
ATOM     30  O07 MOL     1     -10.389   4.857   9.666  1.00  0.00    -0.676 OA
ENDBRANCH  27  28
ENDBRANCH   2  27
TORSDOF 9
ENDMDL
MODEL 16
REMARK VINA RESULT:      -5.3     15.104     18.222
REMARK  9 active torsions:
REMARK  status: ('A' for Active; 'I' for Inactive)
REMARK    1  A    between atoms: C01_2  and  C02_3 
REMARK    2  A    between atoms: C03_4  and  C04_5 
REMARK    3  A    between atoms: C04_5  and  C05_6 
REMARK    4  A    between atoms: C09_10  and  C0A_11 
REMARK    5  A    between atoms: C0A_11  and  C0B_12 
REMARK       I    between atoms: C0B_12  and  N0C_13 
REMARK    6  A    between atoms: C0E_15  and  C0F_16 
REMARK    7  A    between atoms: C0F_16  and  C0G_17 
REMARK    8  A    between atoms: C0N_23  and  C0O_24 
REMARK    9  A    between atoms: C0O_24  and  N0P_25 
ROOT
ATOM      1  C02 MOL     1      -3.647   6.731 -19.872  1.00  0.00    -0.044 C 
ATOM      2  C03 MOL     1      -2.289   6.777 -20.214  1.00  0.00     0.129 C 
ATOM      3  C08 MOL     1      -1.790   7.549 -21.339  1.00  0.00    -0.316 C 
ATOM      4  C09 MOL     1      -2.676   8.374 -22.006  1.00  0.00     0.109 C 
ATOM      5  C0E MOL     1      -4.020   8.327 -21.772  1.00  0.00    -0.064 C 
ATOM      6  C0N MOL     1      -4.494   7.599 -20.655  1.00  0.00    -0.120 C 
ENDROOT
BRANCH   5   7
ATOM      7  C0F MOL     1      -4.945   9.180 -22.626  1.00  0.00     0.047 C 
BRANCH   7   8
ATOM      8  C0G MOL     1      -5.567   8.594 -23.864  1.00  0.00     0.171 C 
ATOM      9  C0M MOL     1      -6.728   7.796 -23.798  1.00  0.00    -0.195 C 
ATOM     10  C0K MOL     1      -7.295   7.234 -24.972  1.00  0.00    -0.062 C 
ATOM     11  C0J MOL     1      -6.641   7.293 -26.206  1.00  0.00    -0.135 C 
ATOM     12  C0I MOL     1      -5.449   8.079 -26.233  1.00  0.00    -0.071 C 
ATOM     13  C0H MOL     1      -5.004   8.719 -25.095  1.00  0.00    -0.152 C 
ENDBRANCH   7   8
ENDBRANCH   5   7
BRANCH   6  14
ATOM     14  C0O MOL     1      -6.015   7.576 -20.294  1.00  0.00     0.092 C 
BRANCH  14  15
ATOM     15  N0P MOL     1      -6.461   8.506 -19.207  1.00  0.00    -0.153 N 
ATOM     16  H0Q MOL     1      -5.673   8.992 -18.812  1.00  0.00     0.257 HD
ATOM     17  H0R MOL     1      -7.002   9.247 -19.643  1.00  0.00     0.244 HD
ATOM     18  H0S MOL     1      -6.955   8.067 -18.443  1.00  0.00     0.246 HD
ENDBRANCH  14  15
ENDBRANCH   6  14
BRANCH   4  19
ATOM     19  C0A MOL     1      -2.042   9.388 -22.986  1.00  0.00    -0.219 C 
BRANCH  19  20
ATOM     20  C0B MOL     1      -0.963   8.795 -23.949  1.00  0.00     0.819 C 
ATOM     21  N0C MOL     1      -1.380   8.310 -25.079  1.00  0.00    -0.993 N 
ATOM     22  H13 MOL     1      -2.376   8.402 -25.263  1.00  0.00     0.395 HD
ATOM     23  H14 MOL     1      -0.745   7.842 -25.698  1.00  0.00     0.440 HD
ATOM     24  O0D MOL     1       0.222   8.870 -23.677  1.00  0.00    -0.614 OA
ENDBRANCH  19  20
ENDBRANCH   4  19
BRANCH   1  25
ATOM     25  C01 MOL     1      -4.202   5.876 -18.712  1.00  0.00    -0.066 C 
ATOM     26  C00 MOL     1      -4.380   4.337 -19.128  1.00  0.00    -0.126 C 
ENDBRANCH   1  25
BRANCH   2  27
ATOM     27  C04 MOL     1      -1.202   5.962 -19.550  1.00  0.00    -0.266 C 
BRANCH  27  28
ATOM     28  C05 MOL     1      -0.528   6.623 -18.374  1.00  0.00     0.870 C 
ATOM     29  O06 MOL     1      -0.244   7.804 -18.322  1.00  0.00    -0.820 OA
ATOM     30  O07 MOL     1      -0.313   5.908 -17.337  1.00  0.00    -0.676 OA
ENDBRANCH  27  28
ENDBRANCH   2  27
TORSDOF 9
ENDMDL
MODEL 17
REMARK VINA RESULT:      -5.3     13.389     16.970
REMARK  9 active torsions:
REMARK  status: ('A' for Active; 'I' for Inactive)
REMARK    1  A    between atoms: C01_2  and  C02_3 
REMARK    2  A    between atoms: C03_4  and  C04_5 
REMARK    3  A    between atoms: C04_5  and  C05_6 
REMARK    4  A    between atoms: C09_10  and  C0A_11 
REMARK    5  A    between atoms: C0A_11  and  C0B_12 
REMARK       I    between atoms: C0B_12  and  N0C_13 
REMARK    6  A    between atoms: C0E_15  and  C0F_16 
REMARK    7  A    between atoms: C0F_16  and  C0G_17 
REMARK    8  A    between atoms: C0N_23  and  C0O_24 
REMARK    9  A    between atoms: C0O_24  and  N0P_25 
ROOT
ATOM      1  C02 MOL     1      -2.296   8.185 -21.708  1.00  0.00    -0.044 C 
ATOM      2  C03 MOL     1      -2.963   7.591 -20.627  1.00  0.00     0.129 C 
ATOM      3  C08 MOL     1      -2.298   6.700 -19.692  1.00  0.00    -0.316 C 
ATOM      4  C09 MOL     1      -0.928   6.548 -19.799  1.00  0.00     0.109 C 
ATOM      5  C0E MOL     1      -0.230   7.039 -20.864  1.00  0.00    -0.064 C 
ATOM      6  C0N MOL     1      -0.877   7.932 -21.751  1.00  0.00    -0.120 C 
ENDROOT
BRANCH   5   7
ATOM      7  C0F MOL     1       1.255   6.733 -20.975  1.00  0.00     0.047 C 
BRANCH   7   8
ATOM      8  C0G MOL     1       1.704   5.404 -21.520  1.00  0.00     0.171 C 
ATOM      9  C0M MOL     1       2.682   4.631 -20.862  1.00  0.00    -0.195 C 
ATOM     10  C0K MOL     1       3.110   3.387 -21.395  1.00  0.00    -0.062 C 
ATOM     11  C0J MOL     1       2.723   2.961 -22.669  1.00  0.00    -0.135 C 
ATOM     12  C0I MOL     1       1.758   3.783 -23.325  1.00  0.00    -0.071 C 
ATOM     13  C0H MOL     1       1.268   4.917 -22.713  1.00  0.00    -0.152 C 
ENDBRANCH   7   8
ENDBRANCH   5   7
BRANCH   6  14
ATOM     14  C0O MOL     1      -0.103   8.587 -22.942  1.00  0.00     0.092 C 
BRANCH  14  15
ATOM     15  N0P MOL     1      -0.071   7.816 -24.226  1.00  0.00    -0.153 N 
ATOM     16  H0Q MOL     1       0.312   8.380 -24.967  1.00  0.00     0.257 HD
ATOM     17  H0R MOL     1       0.611   7.072 -24.118  1.00  0.00     0.244 HD
ATOM     18  H0S MOL     1      -0.967   7.474 -24.543  1.00  0.00     0.246 HD
ENDBRANCH  14  15
ENDBRANCH   6  14
BRANCH   4  19
ATOM     19  C0A MOL     1      -0.236   5.840 -18.612  1.00  0.00    -0.219 C 
BRANCH  19  20
ATOM     20  C0B MOL     1       0.055   6.750 -17.374  1.00  0.00     0.819 C 
ATOM     21  N0C MOL     1       0.199   6.162 -16.226  1.00  0.00    -0.993 N 
ATOM     22  H13 MOL     1       0.157   5.145 -16.238  1.00  0.00     0.395 HD
ATOM     23  H14 MOL     1       0.303   6.700 -15.386  1.00  0.00     0.440 HD
ATOM     24  O0D MOL     1       0.223   7.949 -17.510  1.00  0.00    -0.614 OA
ENDBRANCH  19  20
ENDBRANCH   4  19
BRANCH   1  25
ATOM     25  C01 MOL     1      -2.998   9.094 -22.741  1.00  0.00    -0.066 C 
ATOM     26  C00 MOL     1      -3.167  10.597 -22.206  1.00  0.00    -0.126 C 
ENDBRANCH   1  25
BRANCH   2  27
ATOM     27  C04 MOL     1      -4.447   7.700 -20.359  1.00  0.00    -0.266 C 
BRANCH  27  28
ATOM     28  C05 MOL     1      -5.322   6.822 -21.218  1.00  0.00     0.870 C 
ATOM     29  O06 MOL     1      -6.163   7.240 -21.990  1.00  0.00    -0.820 OA
ATOM     30  O07 MOL     1      -5.110   5.563 -21.188  1.00  0.00    -0.676 OA
ENDBRANCH  27  28
ENDBRANCH   2  27
TORSDOF 9
ENDMDL
MODEL 18
REMARK VINA RESULT:      -5.2     11.796     14.766
REMARK  9 active torsions:
REMARK  status: ('A' for Active; 'I' for Inactive)
REMARK    1  A    between atoms: C01_2  and  C02_3 
REMARK    2  A    between atoms: C03_4  and  C04_5 
REMARK    3  A    between atoms: C04_5  and  C05_6 
REMARK    4  A    between atoms: C09_10  and  C0A_11 
REMARK    5  A    between atoms: C0A_11  and  C0B_12 
REMARK       I    between atoms: C0B_12  and  N0C_13 
REMARK    6  A    between atoms: C0E_15  and  C0F_16 
REMARK    7  A    between atoms: C0F_16  and  C0G_17 
REMARK    8  A    between atoms: C0N_23  and  C0O_24 
REMARK    9  A    between atoms: C0O_24  and  N0P_25 
ROOT
ATOM      1  C02 MOL     1      -2.486   8.226 -20.811  1.00  0.00    -0.044 C 
ATOM      2  C03 MOL     1      -2.719   6.901 -20.417  1.00  0.00     0.129 C 
ATOM      3  C08 MOL     1      -1.663   6.034 -19.925  1.00  0.00    -0.316 C 
ATOM      4  C09 MOL     1      -0.414   6.586 -19.710  1.00  0.00     0.109 C 
ATOM      5  C0E MOL     1      -0.100   7.845 -20.135  1.00  0.00    -0.064 C 
ATOM      6  C0N MOL     1      -1.141   8.694 -20.583  1.00  0.00    -0.120 C 
ENDROOT
BRANCH   5   7
ATOM      7  C0F MOL     1       1.327   8.343 -19.971  1.00  0.00     0.047 C 
BRANCH   7   8
ATOM      8  C0G MOL     1       1.783   8.871 -18.638  1.00  0.00     0.171 C 
ATOM      9  C0M MOL     1       3.029   8.505 -18.089  1.00  0.00    -0.195 C 
ATOM     10  C0K MOL     1       3.441   8.995 -16.822  1.00  0.00    -0.062 C 
ATOM     11  C0J MOL     1       2.572   9.707 -15.991  1.00  0.00    -0.135 C 
ATOM     12  C0I MOL     1       1.304  10.032 -16.561  1.00  0.00    -0.071 C 
ATOM     13  C0H MOL     1       0.994   9.648 -17.849  1.00  0.00    -0.152 C 
ENDBRANCH   7   8
ENDBRANCH   5   7
BRANCH   6  14
ATOM     14  C0O MOL     1      -0.851  10.171 -21.006  1.00  0.00     0.092 C 
BRANCH  14  15
ATOM     15  N0P MOL     1      -0.364  10.384 -22.406  1.00  0.00    -0.153 N 
ATOM     16  H0Q MOL     1       0.124  11.262 -22.481  1.00  0.00     0.257 HD
ATOM     17  H0R MOL     1       0.360   9.695 -22.586  1.00  0.00     0.244 HD
ATOM     18  H0S MOL     1      -1.084  10.381 -23.115  1.00  0.00     0.246 HD
ENDBRANCH  14  15
ENDBRANCH   6  14
BRANCH   4  19
ATOM     19  C0A MOL     1       0.580   5.712 -18.912  1.00  0.00    -0.219 C 
BRANCH  19  20
ATOM     20  C0B MOL     1       0.347   5.686 -17.366  1.00  0.00     0.819 C 
ATOM     21  N0C MOL     1      -0.370   6.641 -16.859  1.00  0.00    -0.993 N 
ATOM     22  H13 MOL     1      -0.763   7.305 -17.522  1.00  0.00     0.395 HD
ATOM     23  H14 MOL     1      -0.482   6.722 -15.865  1.00  0.00     0.440 HD
ATOM     24  O0D MOL     1       0.754   4.756 -16.692  1.00  0.00    -0.614 OA
ENDBRANCH  19  20
ENDBRANCH   4  19
BRANCH   1  25
ATOM     25  C01 MOL     1      -3.586   9.146 -21.384  1.00  0.00    -0.066 C 
ATOM     26  C00 MOL     1      -3.754   8.971 -22.970  1.00  0.00    -0.126 C 
ENDBRANCH   1  25
BRANCH   2  27
ATOM     27  C04 MOL     1      -4.039   6.176 -20.554  1.00  0.00    -0.266 C 
BRANCH  27  28
ATOM     28  C05 MOL     1      -4.917   6.199 -19.329  1.00  0.00     0.870 C 
ATOM     29  O06 MOL     1      -4.917   5.339 -18.469  1.00  0.00    -0.820 OA
ATOM     30  O07 MOL     1      -5.651   7.229 -19.146  1.00  0.00    -0.676 OA
ENDBRANCH  27  28
ENDBRANCH   2  27
TORSDOF 9
ENDMDL
MODEL 19
REMARK VINA RESULT:      -5.2      3.286      6.878
REMARK  9 active torsions:
REMARK  status: ('A' for Active; 'I' for Inactive)
REMARK    1  A    between atoms: C01_2  and  C02_3 
REMARK    2  A    between atoms: C03_4  and  C04_5 
REMARK    3  A    between atoms: C04_5  and  C05_6 
REMARK    4  A    between atoms: C09_10  and  C0A_11 
REMARK    5  A    between atoms: C0A_11  and  C0B_12 
REMARK       I    between atoms: C0B_12  and  N0C_13 
REMARK    6  A    between atoms: C0E_15  and  C0F_16 
REMARK    7  A    between atoms: C0F_16  and  C0G_17 
REMARK    8  A    between atoms: C0N_23  and  C0O_24 
REMARK    9  A    between atoms: C0O_24  and  N0P_25 
ROOT
ATOM      1  C02 MOL     1       2.333  10.766  -0.094  1.00  0.00    -0.044 C 
ATOM      2  C03 MOL     1       1.046  11.190   0.263  1.00  0.00     0.129 C 
ATOM      3  C08 MOL     1       0.032  11.526  -0.721  1.00  0.00    -0.316 C 
ATOM      4  C09 MOL     1       0.311  11.282  -2.053  1.00  0.00     0.109 C 
ATOM      5  C0E MOL     1       1.561  10.937  -2.475  1.00  0.00    -0.064 C 
ATOM      6  C0N MOL     1       2.534  10.579  -1.511  1.00  0.00    -0.120 C 
ENDROOT
BRANCH   5   7
ATOM      7  C0F MOL     1       1.823  10.799  -3.967  1.00  0.00     0.047 C 
BRANCH   7   8
ATOM      8  C0G MOL     1       1.628   9.466  -4.638  1.00  0.00     0.171 C 
ATOM      9  C0M MOL     1       1.398   8.293  -3.890  1.00  0.00    -0.195 C 
ATOM     10  C0K MOL     1       1.234   7.038  -4.534  1.00  0.00    -0.062 C 
ATOM     11  C0J MOL     1       1.468   6.877  -5.902  1.00  0.00    -0.135 C 
ATOM     12  C0I MOL     1       1.735   8.079  -6.626  1.00  0.00    -0.071 C 
ATOM     13  C0H MOL     1       1.755   9.297  -5.981  1.00  0.00    -0.152 C 
ENDBRANCH   7   8
ENDBRANCH   5   7
BRANCH   6  14
ATOM     14  C0O MOL     1       3.958  10.099  -1.941  1.00  0.00     0.092 C 
BRANCH  14  15
ATOM     15  N0P MOL     1       4.968  11.167  -2.230  1.00  0.00    -0.153 N 
ATOM     16  H0Q MOL     1       4.696  11.702  -3.039  1.00  0.00     0.257 HD
ATOM     17  H0R MOL     1       4.923  11.842  -1.473  1.00  0.00     0.244 HD
ATOM     18  H0S MOL     1       5.908  10.835  -2.394  1.00  0.00     0.246 HD
ENDBRANCH  14  15
ENDBRANCH   6  14
BRANCH   4  19
ATOM     19  C0A MOL     1      -0.894  11.370  -3.019  1.00  0.00    -0.219 C 
BRANCH  19  20
ATOM     20  C0B MOL     1      -1.810  10.104  -3.053  1.00  0.00     0.819 C 
ATOM     21  N0C MOL     1      -1.539   9.153  -2.213  1.00  0.00    -0.993 N 
ATOM     22  H13 MOL     1      -0.775   9.334  -1.565  1.00  0.00     0.395 HD
ATOM     23  H14 MOL     1      -2.039   8.284  -2.246  1.00  0.00     0.440 HD
ATOM     24  O0D MOL     1      -2.785  10.062  -3.781  1.00  0.00    -0.614 OA
ENDBRANCH  19  20
ENDBRANCH   4  19
BRANCH   1  25
ATOM     25  C01 MOL     1       3.440  10.453   0.937  1.00  0.00    -0.066 C 
ATOM     26  C00 MOL     1       4.199  11.779   1.427  1.00  0.00    -0.126 C 
ENDBRANCH   1  25
BRANCH   2  27
ATOM     27  C04 MOL     1       0.586  11.462   1.677  1.00  0.00    -0.266 C 
BRANCH  27  28
ATOM     28  C05 MOL     1      -0.104  10.309   2.363  1.00  0.00     0.870 C 
ATOM     29  O06 MOL     1      -1.031  10.430   3.140  1.00  0.00    -0.820 OA
ATOM     30  O07 MOL     1       0.261   9.127   2.044  1.00  0.00    -0.676 OA
ENDBRANCH  27  28
ENDBRANCH   2  27
TORSDOF 9
ENDMDL
MODEL 20
REMARK VINA RESULT:      -5.1     17.343     20.347
REMARK  9 active torsions:
REMARK  status: ('A' for Active; 'I' for Inactive)
REMARK    1  A    between atoms: C01_2  and  C02_3 
REMARK    2  A    between atoms: C03_4  and  C04_5 
REMARK    3  A    between atoms: C04_5  and  C05_6 
REMARK    4  A    between atoms: C09_10  and  C0A_11 
REMARK    5  A    between atoms: C0A_11  and  C0B_12 
REMARK       I    between atoms: C0B_12  and  N0C_13 
REMARK    6  A    between atoms: C0E_15  and  C0F_16 
REMARK    7  A    between atoms: C0F_16  and  C0G_17 
REMARK    8  A    between atoms: C0N_23  and  C0O_24 
REMARK    9  A    between atoms: C0O_24  and  N0P_25 
ROOT
ATOM      1  C02 MOL     1      -4.543   8.196 -21.650  1.00  0.00    -0.044 C 
ATOM      2  C03 MOL     1      -3.331   8.851 -21.907  1.00  0.00     0.129 C 
ATOM      3  C08 MOL     1      -3.032   9.469 -23.187  1.00  0.00    -0.316 C 
ATOM      4  C09 MOL     1      -4.038   9.528 -24.133  1.00  0.00     0.109 C 
ATOM      5  C0E MOL     1      -5.214   8.853 -23.976  1.00  0.00    -0.064 C 
ATOM      6  C0N MOL     1      -5.511   8.282 -22.716  1.00  0.00    -0.120 C 
ENDROOT
BRANCH   5   7
ATOM      7  C0F MOL     1      -6.228   8.868 -25.109  1.00  0.00     0.047 C 
BRANCH   7   8
ATOM      8  C0G MOL     1      -6.252   7.739 -26.103  1.00  0.00     0.171 C 
ATOM      9  C0M MOL     1      -7.295   6.790 -26.115  1.00  0.00    -0.195 C 
ATOM     10  C0K MOL     1      -7.298   5.719 -27.046  1.00  0.00    -0.062 C 
ATOM     11  C0J MOL     1      -6.195   5.452 -27.862  1.00  0.00    -0.135 C 
ATOM     12  C0I MOL     1      -5.139   6.410 -27.802  1.00  0.00    -0.071 C 
ATOM     13  C0H MOL     1      -5.236   7.511 -26.978  1.00  0.00    -0.152 C 
ENDBRANCH   7   8
ENDBRANCH   5   7
BRANCH   6  14
ATOM     14  C0O MOL     1      -6.877   7.566 -22.457  1.00  0.00     0.092 C 
BRANCH  14  15
ATOM     15  N0P MOL     1      -6.929   6.096 -22.742  1.00  0.00    -0.153 N 
ATOM     16  H0Q MOL     1      -6.025   5.676 -22.598  1.00  0.00     0.257 HD
ATOM     17  H0R MOL     1      -7.507   5.667 -22.026  1.00  0.00     0.244 HD
ATOM     18  H0S MOL     1      -7.227   5.851 -23.676  1.00  0.00     0.246 HD
ENDBRANCH  14  15
ENDBRANCH   6  14
BRANCH   4  19
ATOM     19  C0A MOL     1      -3.769  10.450 -25.344  1.00  0.00    -0.219 C 
BRANCH  19  20
ATOM     20  C0B MOL     1      -3.967  11.977 -25.073  1.00  0.00     0.819 C 
ATOM     21  N0C MOL     1      -5.170  12.380 -24.801  1.00  0.00    -0.993 N 
ATOM     22  H13 MOL     1      -5.880  11.654 -24.740  1.00  0.00     0.395 HD
ATOM     23  H14 MOL     1      -5.370  13.358 -24.701  1.00  0.00     0.440 HD
ATOM     24  O0D MOL     1      -3.010  12.730 -25.035  1.00  0.00    -0.614 OA
ENDBRANCH  19  20
ENDBRANCH   4  19
BRANCH   1  25
ATOM     25  C01 MOL     1      -4.858   7.489 -20.313  1.00  0.00    -0.066 C 
ATOM     26  C00 MOL     1      -4.300   5.985 -20.279  1.00  0.00    -0.126 C 
ENDBRANCH   1  25
BRANCH   2  27
ATOM     27  C04 MOL     1      -2.156   8.904 -20.956  1.00  0.00    -0.266 C 
BRANCH  27  28
ATOM     28  C05 MOL     1      -0.943   8.118 -21.386  1.00  0.00     0.870 C 
ATOM     29  O06 MOL     1       0.138   8.612 -21.639  1.00  0.00    -0.820 OA
ATOM     30  O07 MOL     1      -1.041   6.845 -21.409  1.00  0.00    -0.676 OA
ENDBRANCH  27  28
ENDBRANCH   2  27
TORSDOF 9
ENDMDL
