MODEL 1
REMARK VINA RESULT:      -6.5      0.000      0.000
REMARK  9 active torsions:
REMARK  status: ('A' for Active; 'I' for Inactive)
REMARK    1  A    between atoms: C01_2  and  C02_3 
REMARK    2  A    between atoms: C03_4  and  C04_5 
REMARK    3  A    between atoms: C04_5  and  C05_6 
REMARK    4  A    between atoms: C09_10  and  C0A_11 
REMARK    5  A    between atoms: C0A_11  and  C0B_12 
REMARK       I    between atoms: C0B_12  and  N0C_13 
REMARK    6  A    between atoms: C0E_15  and  C0F_16 
REMARK    7  A    between atoms: C0F_16  and  C0G_17 
REMARK    8  A    between atoms: C0N_23  and  C0O_24 
REMARK    9  A    between atoms: C0O_24  and  N0P_25 
ROOT
ATOM      1  C02 MOL     1       1.456   6.550  -6.001  1.00  0.00    -0.044 C 
ATOM      2  C03 MOL     1       0.566   5.690  -5.344  1.00  0.00     0.129 C 
ATOM      3  C08 MOL     1      -0.525   6.177  -4.517  1.00  0.00    -0.316 C 
ATOM      4  C09 MOL     1      -0.769   7.537  -4.495  1.00  0.00     0.109 C 
ATOM      5  C0E MOL     1       0.096   8.433  -5.053  1.00  0.00    -0.064 C 
ATOM      6  C0N MOL     1       1.136   7.952  -5.883  1.00  0.00    -0.120 C 
ENDROOT
BRANCH   5   7
ATOM      7  C0F MOL     1      -0.176   9.920  -4.888  1.00  0.00     0.047 C 
BRANCH   7   8
ATOM      8  C0G MOL     1       0.281  10.628  -3.643  1.00  0.00     0.171 C 
ATOM      9  C0M MOL     1       1.647  10.700  -3.296  1.00  0.00    -0.195 C 
ATOM     10  C0K MOL     1       2.065  11.356  -2.109  1.00  0.00    -0.062 C 
ATOM     11  C0J MOL     1       1.148  11.797  -1.151  1.00  0.00    -0.135 C 
ATOM     12  C0I MOL     1      -0.227  11.679  -1.515  1.00  0.00    -0.071 C 
ATOM     13  C0H MOL     1      -0.587  11.154  -2.738  1.00  0.00    -0.152 C 
ENDBRANCH   7   8
ENDBRANCH   5   7
BRANCH   6  14
ATOM     14  C0O MOL     1       2.108   8.937  -6.611  1.00  0.00     0.092 C 
BRANCH  14  15
ATOM     15  N0P MOL     1       1.677   9.434  -7.957  1.00  0.00    -0.153 N 
ATOM     16  H0Q MOL     1       1.573   8.666  -8.601  1.00  0.00     0.257 HD
ATOM     17  H0R MOL     1       0.731   9.792  -7.861  1.00  0.00     0.244 HD
ATOM     18  H0S MOL     1       2.300  10.103  -8.387  1.00  0.00     0.246 HD
ENDBRANCH  14  15
ENDBRANCH   6  14
BRANCH   4  19
ATOM     19  C0A MOL     1      -2.107   7.970  -3.853  1.00  0.00    -0.219 C 
BRANCH  19  20
ATOM     20  C0B MOL     1      -3.151   8.583  -4.842  1.00  0.00     0.819 C 
ATOM     21  N0C MOL     1      -3.433   7.897  -5.907  1.00  0.00    -0.993 N 
ATOM     22  H13 MOL     1      -2.983   6.987  -5.983  1.00  0.00     0.395 HD
ATOM     23  H14 MOL     1      -4.031   8.278  -6.616  1.00  0.00     0.440 HD
ATOM     24  O0D MOL     1      -3.731   9.619  -4.570  1.00  0.00    -0.614 OA
ENDBRANCH  19  20
ENDBRANCH   4  19
BRANCH   1  25
ATOM     25  C01 MOL     1       2.652   6.051  -6.842  1.00  0.00    -0.066 C 
ATOM     26  C00 MOL     1       2.247   5.796  -8.373  1.00  0.00    -0.126 C 
ENDBRANCH   1  25
BRANCH   2  27
ATOM     27  C04 MOL     1       0.682   4.183  -5.311  1.00  0.00    -0.266 C 
BRANCH  27  28
ATOM     28  C05 MOL     1      -0.223   3.446  -6.265  1.00  0.00     0.870 C 
ATOM     29  O06 MOL     1      -0.228   3.610  -7.470  1.00  0.00    -0.820 OA
ATOM     30  O07 MOL     1      -0.977   2.535  -5.781  1.00  0.00    -0.676 OA
ENDBRANCH  27  28
ENDBRANCH   2  27
TORSDOF 9
ENDMDL
MODEL 2
REMARK VINA RESULT:      -6.0      2.107      2.740
REMARK  9 active torsions:
REMARK  status: ('A' for Active; 'I' for Inactive)
REMARK    1  A    between atoms: C01_2  and  C02_3 
REMARK    2  A    between atoms: C03_4  and  C04_5 
REMARK    3  A    between atoms: C04_5  and  C05_6 
REMARK    4  A    between atoms: C09_10  and  C0A_11 
REMARK    5  A    between atoms: C0A_11  and  C0B_12 
REMARK       I    between atoms: C0B_12  and  N0C_13 
REMARK    6  A    between atoms: C0E_15  and  C0F_16 
REMARK    7  A    between atoms: C0F_16  and  C0G_17 
REMARK    8  A    between atoms: C0N_23  and  C0O_24 
REMARK    9  A    between atoms: C0O_24  and  N0P_25 
ROOT
ATOM      1  C02 MOL     1       1.838   6.501  -5.604  1.00  0.00    -0.044 C 
ATOM      2  C03 MOL     1       1.161   6.225  -4.408  1.00  0.00     0.129 C 
ATOM      3  C08 MOL     1       0.681   7.271  -3.521  1.00  0.00    -0.316 C 
ATOM      4  C09 MOL     1       0.778   8.582  -3.947  1.00  0.00     0.109 C 
ATOM      5  C0E MOL     1       1.485   8.926  -5.063  1.00  0.00    -0.064 C 
ATOM      6  C0N MOL     1       1.921   7.902  -5.938  1.00  0.00    -0.120 C 
ENDROOT
BRANCH   5   7
ATOM      7  C0F MOL     1       1.648  10.398  -5.406  1.00  0.00     0.047 C 
BRANCH   7   8
ATOM      8  C0G MOL     1       2.872  11.141  -4.943  1.00  0.00     0.171 C 
ATOM      9  C0M MOL     1       3.051  11.490  -3.588  1.00  0.00    -0.195 C 
ATOM     10  C0K MOL     1       4.201  12.207  -3.166  1.00  0.00    -0.062 C 
ATOM     11  C0J MOL     1       5.108  12.749  -4.081  1.00  0.00    -0.135 C 
ATOM     12  C0I MOL     1       4.879  12.407  -5.448  1.00  0.00    -0.071 C 
ATOM     13  C0H MOL     1       3.822  11.597  -5.802  1.00  0.00    -0.152 C 
ENDBRANCH   7   8
ENDBRANCH   5   7
BRANCH   6  14
ATOM     14  C0O MOL     1       2.665   8.243  -7.271  1.00  0.00     0.092 C 
BRANCH  14  15
ATOM     15  N0P MOL     1       1.807   8.527  -8.465  1.00  0.00    -0.153 N 
ATOM     16  H0Q MOL     1       1.660   9.518  -8.567  1.00  0.00     0.257 HD
ATOM     17  H0R MOL     1       2.344   8.281  -9.291  1.00  0.00     0.244 HD
ATOM     18  H0S MOL     1       0.897   8.089  -8.453  1.00  0.00     0.246 HD
ENDBRANCH  14  15
ENDBRANCH   6  14
BRANCH   4  19
ATOM     19  C0A MOL     1      -0.009   9.620  -3.115  1.00  0.00    -0.219 C 
BRANCH  19  20
ATOM     20  C0B MOL     1      -1.563   9.567  -3.286  1.00  0.00     0.819 C 
ATOM     21  N0C MOL     1      -2.025   9.552  -4.499  1.00  0.00    -0.993 N 
ATOM     22  H13 MOL     1      -1.330   9.528  -5.241  1.00  0.00     0.395 HD
ATOM     23  H14 MOL     1      -3.012   9.602  -4.669  1.00  0.00     0.440 HD
ATOM     24  O0D MOL     1      -2.291   9.456  -2.316  1.00  0.00    -0.614 OA
ENDBRANCH  19  20
ENDBRANCH   4  19
BRANCH   1  25
ATOM     25  C01 MOL     1       2.400   5.404  -6.533  1.00  0.00    -0.066 C 
ATOM     26  C00 MOL     1       1.291   4.850  -7.552  1.00  0.00    -0.126 C 
ENDBRANCH   1  25
BRANCH   2  27
ATOM     27  C04 MOL     1       0.944   4.843  -3.836  1.00  0.00    -0.266 C 
BRANCH  27  28
ATOM     28  C05 MOL     1      -0.410   4.238  -4.107  1.00  0.00     0.870 C 
ATOM     29  O06 MOL     1      -0.620   3.374  -4.937  1.00  0.00    -0.820 OA
ATOM     30  O07 MOL     1      -1.382   4.603  -3.363  1.00  0.00    -0.676 OA
ENDBRANCH  27  28
ENDBRANCH   2  27
TORSDOF 9
ENDMDL
MODEL 3
REMARK VINA RESULT:      -5.9      3.467      6.442
REMARK  9 active torsions:
REMARK  status: ('A' for Active; 'I' for Inactive)
REMARK    1  A    between atoms: C01_2  and  C02_3 
REMARK    2  A    between atoms: C03_4  and  C04_5 
REMARK    3  A    between atoms: C04_5  and  C05_6 
REMARK    4  A    between atoms: C09_10  and  C0A_11 
REMARK    5  A    between atoms: C0A_11  and  C0B_12 
REMARK       I    between atoms: C0B_12  and  N0C_13 
REMARK    6  A    between atoms: C0E_15  and  C0F_16 
REMARK    7  A    between atoms: C0F_16  and  C0G_17 
REMARK    8  A    between atoms: C0N_23  and  C0O_24 
REMARK    9  A    between atoms: C0O_24  and  N0P_25 
ROOT
ATOM      1  C02 MOL     1       2.001  11.394  -1.722  1.00  0.00    -0.044 C 
ATOM      2  C03 MOL     1       0.688  11.594  -1.273  1.00  0.00     0.129 C 
ATOM      3  C08 MOL     1      -0.470  11.380  -2.124  1.00  0.00    -0.316 C 
ATOM      4  C09 MOL     1      -0.268  10.826  -3.374  1.00  0.00     0.109 C 
ATOM      5  C0E MOL     1       0.983  10.672  -3.898  1.00  0.00    -0.064 C 
ATOM      6  C0N MOL     1       2.105  10.850  -3.054  1.00  0.00    -0.120 C 
ENDROOT
BRANCH   5   7
ATOM      7  C0F MOL     1       1.125  10.165  -5.325  1.00  0.00     0.047 C 
BRANCH   7   8
ATOM      8  C0G MOL     1       1.287  11.148  -6.452  1.00  0.00     0.171 C 
ATOM      9  C0M MOL     1       2.516  11.298  -7.128  1.00  0.00    -0.195 C 
ATOM     10  C0K MOL     1       2.661  12.241  -8.178  1.00  0.00    -0.062 C 
ATOM     11  C0J MOL     1       1.665  13.178  -8.468  1.00  0.00    -0.135 C 
ATOM     12  C0I MOL     1       0.446  13.023  -7.743  1.00  0.00    -0.071 C 
ATOM     13  C0H MOL     1       0.300  12.007  -6.822  1.00  0.00    -0.152 C 
ENDBRANCH   7   8
ENDBRANCH   5   7
BRANCH   6  14
ATOM     14  C0O MOL     1       3.557  10.609  -3.581  1.00  0.00     0.092 C 
BRANCH  14  15
ATOM     15  N0P MOL     1       4.270  11.796  -4.152  1.00  0.00    -0.153 N 
ATOM     16  H0Q MOL     1       4.838  11.524  -4.938  1.00  0.00     0.257 HD
ATOM     17  H0R MOL     1       3.568  12.403  -4.566  1.00  0.00     0.244 HD
ATOM     18  H0S MOL     1       4.871  12.288  -3.505  1.00  0.00     0.246 HD
ENDBRANCH  14  15
ENDBRANCH   6  14
BRANCH   4  19
ATOM     19  C0A MOL     1      -1.539  10.343  -4.109  1.00  0.00    -0.219 C 
BRANCH  19  20
ATOM     20  C0B MOL     1      -1.819   8.808  -4.012  1.00  0.00     0.819 C 
ATOM     21  N0C MOL     1      -1.903   8.149  -5.126  1.00  0.00    -0.993 N 
ATOM     22  H13 MOL     1      -1.730   8.683  -5.975  1.00  0.00     0.395 HD
ATOM     23  H14 MOL     1      -2.164   7.180  -5.128  1.00  0.00     0.440 HD
ATOM     24  O0D MOL     1      -1.868   8.253  -2.929  1.00  0.00    -0.614 OA
ENDBRANCH  19  20
ENDBRANCH   4  19
BRANCH   1  25
ATOM     25  C01 MOL     1       3.246  11.665  -0.849  1.00  0.00    -0.066 C 
ATOM     26  C00 MOL     1       3.672  10.379   0.010  1.00  0.00    -0.126 C 
ENDBRANCH   1  25
BRANCH   2  27
ATOM     27  C04 MOL     1       0.311  12.155   0.079  1.00  0.00    -0.266 C 
BRANCH  27  28
ATOM     28  C05 MOL     1       0.312  11.160   1.213  1.00  0.00     0.870 C 
ATOM     29  O06 MOL     1      -0.213  10.065   1.163  1.00  0.00    -0.820 OA
ATOM     30  O07 MOL     1       0.976  11.460   2.262  1.00  0.00    -0.676 OA
ENDBRANCH  27  28
ENDBRANCH   2  27
TORSDOF 9
ENDMDL
MODEL 4
REMARK VINA RESULT:      -5.9      2.211      3.898
REMARK  9 active torsions:
REMARK  status: ('A' for Active; 'I' for Inactive)
REMARK    1  A    between atoms: C01_2  and  C02_3 
REMARK    2  A    between atoms: C03_4  and  C04_5 
REMARK    3  A    between atoms: C04_5  and  C05_6 
REMARK    4  A    between atoms: C09_10  and  C0A_11 
REMARK    5  A    between atoms: C0A_11  and  C0B_12 
REMARK       I    between atoms: C0B_12  and  N0C_13 
REMARK    6  A    between atoms: C0E_15  and  C0F_16 
REMARK    7  A    between atoms: C0F_16  and  C0G_17 
REMARK    8  A    between atoms: C0N_23  and  C0O_24 
REMARK    9  A    between atoms: C0O_24  and  N0P_25 
ROOT
ATOM      1  C02 MOL     1       1.033   6.399  -4.513  1.00  0.00    -0.044 C 
ATOM      2  C03 MOL     1       1.657   6.544  -5.759  1.00  0.00     0.129 C 
ATOM      3  C08 MOL     1       1.657   7.798  -6.493  1.00  0.00    -0.316 C 
ATOM      4  C09 MOL     1       1.141   8.918  -5.869  1.00  0.00     0.109 C 
ATOM      5  C0E MOL     1       0.458   8.835  -4.690  1.00  0.00    -0.064 C 
ATOM      6  C0N MOL     1       0.490   7.619  -3.966  1.00  0.00    -0.120 C 
ENDROOT
BRANCH   5   7
ATOM      7  C0F MOL     1      -0.184  10.090  -4.121  1.00  0.00     0.047 C 
BRANCH   7   8
ATOM      8  C0G MOL     1       0.464  10.800  -2.963  1.00  0.00     0.171 C 
ATOM      9  C0M MOL     1      -0.302  11.345  -1.912  1.00  0.00    -0.195 C 
ATOM     10  C0K MOL     1       0.319  12.027  -0.834  1.00  0.00    -0.062 C 
ATOM     11  C0J MOL     1       1.680  12.345  -0.851  1.00  0.00    -0.135 C 
ATOM     12  C0I MOL     1       2.423  11.809  -1.946  1.00  0.00    -0.071 C 
ATOM     13  C0H MOL     1       1.801  11.038  -2.906  1.00  0.00    -0.152 C 
ENDBRANCH   7   8
ENDBRANCH   5   7
BRANCH   6  14
ATOM     14  C0O MOL     1      -0.207   7.492  -2.572  1.00  0.00     0.092 C 
BRANCH  14  15
ATOM     15  N0P MOL     1      -1.669   7.164  -2.581  1.00  0.00    -0.153 N 
ATOM     16  H0Q MOL     1      -1.924   6.708  -3.441  1.00  0.00     0.257 HD
ATOM     17  H0R MOL     1      -1.825   6.449  -1.877  1.00  0.00     0.244 HD
ATOM     18  H0S MOL     1      -2.286   7.956  -2.468  1.00  0.00     0.246 HD
ENDBRANCH  14  15
ENDBRANCH   6  14
BRANCH   4  19
ATOM     19  C0A MOL     1       1.436  10.269  -6.560  1.00  0.00    -0.219 C 
BRANCH  19  20
ATOM     20  C0B MOL     1       2.946  10.549  -6.852  1.00  0.00     0.819 C 
ATOM     21  N0C MOL     1       3.291  10.703  -8.093  1.00  0.00    -0.993 N 
ATOM     22  H13 MOL     1       2.535  10.675  -8.773  1.00  0.00     0.395 HD
ATOM     23  H14 MOL     1       4.257  10.802  -8.346  1.00  0.00     0.440 HD
ATOM     24  O0D MOL     1       3.737  10.701  -5.938  1.00  0.00    -0.614 OA
ENDBRANCH  19  20
ENDBRANCH   4  19
BRANCH   1  25
ATOM     25  C01 MOL     1       0.978   5.062  -3.742  1.00  0.00    -0.066 C 
ATOM     26  C00 MOL     1      -0.296   4.179  -4.155  1.00  0.00    -0.126 C 
ENDBRANCH   1  25
BRANCH   2  27
ATOM     27  C04 MOL     1       2.297   5.420  -6.543  1.00  0.00    -0.266 C 
BRANCH  27  28
ATOM     28  C05 MOL     1       1.514   4.942  -7.739  1.00  0.00     0.870 C 
ATOM     29  O06 MOL     1       1.835   5.146  -8.894  1.00  0.00    -0.820 OA
ATOM     30  O07 MOL     1       0.490   4.209  -7.522  1.00  0.00    -0.676 OA
ENDBRANCH  27  28
ENDBRANCH   2  27
TORSDOF 9
ENDMDL
MODEL 5
REMARK VINA RESULT:      -5.8      3.064      7.023
REMARK  9 active torsions:
REMARK  status: ('A' for Active; 'I' for Inactive)
REMARK    1  A    between atoms: C01_2  and  C02_3 
REMARK    2  A    between atoms: C03_4  and  C04_5 
REMARK    3  A    between atoms: C04_5  and  C05_6 
REMARK    4  A    between atoms: C09_10  and  C0A_11 
REMARK    5  A    between atoms: C0A_11  and  C0B_12 
REMARK       I    between atoms: C0B_12  and  N0C_13 
REMARK    6  A    between atoms: C0E_15  and  C0F_16 
REMARK    7  A    between atoms: C0F_16  and  C0G_17 
REMARK    8  A    between atoms: C0N_23  and  C0O_24 
REMARK    9  A    between atoms: C0O_24  and  N0P_25 
ROOT
ATOM      1  C02 MOL     1      -0.419   9.061  -2.932  1.00  0.00    -0.044 C 
ATOM      2  C03 MOL     1       0.873   9.258  -2.426  1.00  0.00     0.129 C 
ATOM      3  C08 MOL     1       1.883   8.214  -2.435  1.00  0.00    -0.316 C 
ATOM      4  C09 MOL     1       1.595   7.034  -3.094  1.00  0.00     0.109 C 
ATOM      5  C0E MOL     1       0.340   6.750  -3.547  1.00  0.00    -0.064 C 
ATOM      6  C0N MOL     1      -0.629   7.782  -3.565  1.00  0.00    -0.120 C 
ENDROOT
BRANCH   5   7
ATOM      7  C0F MOL     1       0.068   5.384  -4.157  1.00  0.00     0.047 C 
BRANCH   7   8
ATOM      8  C0G MOL     1       0.448   5.119  -5.588  1.00  0.00     0.171 C 
ATOM      9  C0M MOL     1       0.368   3.825  -6.143  1.00  0.00    -0.195 C 
ATOM     10  C0K MOL     1       0.746   3.583  -7.490  1.00  0.00    -0.062 C 
ATOM     11  C0J MOL     1       1.376   4.561  -8.263  1.00  0.00    -0.135 C 
ATOM     12  C0I MOL     1       1.475   5.852  -7.661  1.00  0.00    -0.071 C 
ATOM     13  C0H MOL     1       0.974   6.077  -6.397  1.00  0.00    -0.152 C 
ENDBRANCH   7   8
ENDBRANCH   5   7
BRANCH   6  14
ATOM     14  C0O MOL     1      -2.059   7.535  -4.146  1.00  0.00     0.092 C 
BRANCH  14  15
ATOM     15  N0P MOL     1      -2.228   7.736  -5.621  1.00  0.00    -0.153 N 
ATOM     16  H0Q MOL     1      -2.973   8.388  -5.806  1.00  0.00     0.257 HD
ATOM     17  H0R MOL     1      -1.402   8.219  -5.960  1.00  0.00     0.244 HD
ATOM     18  H0S MOL     1      -2.427   6.897  -6.148  1.00  0.00     0.246 HD
ENDBRANCH  14  15
ENDBRANCH   6  14
BRANCH   4  19
ATOM     19  C0A MOL     1       2.794   6.088  -3.333  1.00  0.00    -0.219 C 
BRANCH  19  20
ATOM     20  C0B MOL     1       4.038   6.750  -4.011  1.00  0.00     0.819 C 
ATOM     21  N0C MOL     1       5.168   6.674  -3.378  1.00  0.00    -0.993 N 
ATOM     22  H13 MOL     1       5.159   6.143  -2.510  1.00  0.00     0.395 HD
ATOM     23  H14 MOL     1       5.980   7.152  -3.724  1.00  0.00     0.440 HD
ATOM     24  O0D MOL     1       3.953   7.237  -5.124  1.00  0.00    -0.614 OA
ENDBRANCH  19  20
ENDBRANCH   4  19
BRANCH   1  25
ATOM     25  C01 MOL     1      -1.522  10.142  -2.885  1.00  0.00    -0.066 C 
ATOM     26  C00 MOL     1      -1.335  11.245  -4.034  1.00  0.00    -0.126 C 
ENDBRANCH   1  25
BRANCH   2  27
ATOM     27  C04 MOL     1       1.344  10.507  -1.715  1.00  0.00    -0.266 C 
BRANCH  27  28
ATOM     28  C05 MOL     1       2.225  11.418  -2.532  1.00  0.00     0.870 C 
ATOM     29  O06 MOL     1       2.384  11.323  -3.733  1.00  0.00    -0.820 OA
ATOM     30  O07 MOL     1       2.778  12.401  -1.931  1.00  0.00    -0.676 OA
ENDBRANCH  27  28
ENDBRANCH   2  27
TORSDOF 9
ENDMDL
MODEL 6
REMARK VINA RESULT:      -5.7     13.824     16.556
REMARK  9 active torsions:
REMARK  status: ('A' for Active; 'I' for Inactive)
REMARK    1  A    between atoms: C01_2  and  C02_3 
REMARK    2  A    between atoms: C03_4  and  C04_5 
REMARK    3  A    between atoms: C04_5  and  C05_6 
REMARK    4  A    between atoms: C09_10  and  C0A_11 
REMARK    5  A    between atoms: C0A_11  and  C0B_12 
REMARK       I    between atoms: C0B_12  and  N0C_13 
REMARK    6  A    between atoms: C0E_15  and  C0F_16 
REMARK    7  A    between atoms: C0F_16  and  C0G_17 
REMARK    8  A    between atoms: C0N_23  and  C0O_24 
REMARK    9  A    between atoms: C0O_24  and  N0P_25 
ROOT
ATOM      1  C02 MOL     1      -0.976   7.992 -20.295  1.00  0.00    -0.044 C 
ATOM      2  C03 MOL     1      -0.984   6.731 -19.682  1.00  0.00     0.129 C 
ATOM      3  C08 MOL     1      -2.213   6.031 -19.348  1.00  0.00    -0.316 C 
ATOM      4  C09 MOL     1      -3.409   6.573 -19.779  1.00  0.00     0.109 C 
ATOM      5  C0E MOL     1      -3.480   7.826 -20.317  1.00  0.00    -0.064 C 
ATOM      6  C0N MOL     1      -2.279   8.486 -20.670  1.00  0.00    -0.120 C 
ENDROOT
BRANCH   5   7
ATOM      7  C0F MOL     1      -4.844   8.403 -20.661  1.00  0.00     0.047 C 
BRANCH   7   8
ATOM      8  C0G MOL     1      -5.477   8.081 -21.987  1.00  0.00     0.171 C 
ATOM      9  C0M MOL     1      -5.084   8.741 -23.170  1.00  0.00    -0.195 C 
ATOM     10  C0K MOL     1      -5.702   8.441 -24.412  1.00  0.00    -0.062 C 
ATOM     11  C0J MOL     1      -6.833   7.624 -24.493  1.00  0.00    -0.135 C 
ATOM     12  C0I MOL     1      -7.228   6.999 -23.272  1.00  0.00    -0.071 C 
ATOM     13  C0H MOL     1      -6.518   7.215 -22.110  1.00  0.00    -0.152 C 
ENDBRANCH   7   8
ENDBRANCH   5   7
BRANCH   6  14
ATOM     14  C0O MOL     1      -2.303   9.888 -21.362  1.00  0.00     0.092 C 
BRANCH  14  15
ATOM     15  N0P MOL     1      -2.030   9.915 -22.835  1.00  0.00    -0.153 N 
ATOM     16  H0Q MOL     1      -1.103  10.263 -23.017  1.00  0.00     0.257 HD
ATOM     17  H0R MOL     1      -1.989   8.951 -23.154  1.00  0.00     0.244 HD
ATOM     18  H0S MOL     1      -2.672  10.473 -23.379  1.00  0.00     0.246 HD
ENDBRANCH  14  15
ENDBRANCH   6  14
BRANCH   4  19
ATOM     19  C0A MOL     1      -4.645   5.651 -19.666  1.00  0.00    -0.219 C 
BRANCH  19  20
ATOM     20  C0B MOL     1      -5.159   5.407 -18.210  1.00  0.00     0.819 C 
ATOM     21  N0C MOL     1      -4.717   4.354 -17.594  1.00  0.00    -0.993 N 
ATOM     22  H13 MOL     1      -4.031   3.798 -18.097  1.00  0.00     0.395 HD
ATOM     23  H14 MOL     1      -5.076   4.103 -16.691  1.00  0.00     0.440 HD
ATOM     24  O0D MOL     1      -5.875   6.225 -17.659  1.00  0.00    -0.614 OA
ENDBRANCH  19  20
ENDBRANCH   4  19
BRANCH   1  25
ATOM     25  C01 MOL     1       0.318   8.773 -20.611  1.00  0.00    -0.066 C 
ATOM     26  C00 MOL     1       1.028   8.247 -21.949  1.00  0.00    -0.126 C 
ENDBRANCH   1  25
BRANCH   2  27
ATOM     27  C04 MOL     1       0.244   5.998 -19.193  1.00  0.00    -0.266 C 
BRANCH  27  28
ATOM     28  C05 MOL     1       0.462   6.030 -17.701  1.00  0.00     0.870 C 
ATOM     29  O06 MOL     1       0.301   7.015 -17.006  1.00  0.00    -0.820 OA
ATOM     30  O07 MOL     1       0.761   4.931 -17.123  1.00  0.00    -0.676 OA
ENDBRANCH  27  28
ENDBRANCH   2  27
TORSDOF 9
ENDMDL
MODEL 7
REMARK VINA RESULT:      -5.7     13.547     16.504
REMARK  9 active torsions:
REMARK  status: ('A' for Active; 'I' for Inactive)
REMARK    1  A    between atoms: C01_2  and  C02_3 
REMARK    2  A    between atoms: C03_4  and  C04_5 
REMARK    3  A    between atoms: C04_5  and  C05_6 
REMARK    4  A    between atoms: C09_10  and  C0A_11 
REMARK    5  A    between atoms: C0A_11  and  C0B_12 
REMARK       I    between atoms: C0B_12  and  N0C_13 
REMARK    6  A    between atoms: C0E_15  and  C0F_16 
REMARK    7  A    between atoms: C0F_16  and  C0G_17 
REMARK    8  A    between atoms: C0N_23  and  C0O_24 
REMARK    9  A    between atoms: C0O_24  and  N0P_25 
ROOT
ATOM      1  C02 MOL     1      -4.266   7.403 -20.382  1.00  0.00    -0.044 C 
ATOM      2  C03 MOL     1      -3.822   6.239 -19.740  1.00  0.00     0.129 C 
ATOM      3  C08 MOL     1      -2.418   5.983 -19.466  1.00  0.00    -0.316 C 
ATOM      4  C09 MOL     1      -1.509   6.992 -19.726  1.00  0.00     0.109 C 
ATOM      5  C0E MOL     1      -1.861   8.118 -20.411  1.00  0.00    -0.064 C 
ATOM      6  C0N MOL     1      -3.233   8.376 -20.645  1.00  0.00    -0.120 C 
ENDROOT
BRANCH   5   7
ATOM      7  C0F MOL     1      -0.783   9.132 -20.764  1.00  0.00     0.047 C 
BRANCH   7   8
ATOM      8  C0G MOL     1      -0.234   9.178 -22.164  1.00  0.00     0.171 C 
ATOM      9  C0M MOL     1      -0.028   8.002 -22.913  1.00  0.00    -0.195 C 
ATOM     10  C0K MOL     1       0.508   8.057 -24.226  1.00  0.00    -0.062 C 
ATOM     11  C0J MOL     1       1.018   9.242 -24.763  1.00  0.00    -0.135 C 
ATOM     12  C0I MOL     1       0.827  10.411 -23.965  1.00  0.00    -0.071 C 
ATOM     13  C0H MOL     1       0.181  10.333 -22.749  1.00  0.00    -0.152 C 
ENDBRANCH   7   8
ENDBRANCH   5   7
BRANCH   6  14
ATOM     14  C0O MOL     1      -3.698   9.689 -21.354  1.00  0.00     0.092 C 
BRANCH  14  15
ATOM     15  N0P MOL     1      -3.717   9.673 -22.852  1.00  0.00    -0.153 N 
ATOM     16  H0Q MOL     1      -4.227   8.873 -23.190  1.00  0.00     0.257 HD
ATOM     17  H0R MOL     1      -4.281  10.460 -23.158  1.00  0.00     0.244 HD
ATOM     18  H0S MOL     1      -2.808   9.656 -23.292  1.00  0.00     0.246 HD
ENDBRANCH  14  15
ENDBRANCH   6  14
BRANCH   4  19
ATOM     19  C0A MOL     1      -0.092   6.786 -19.143  1.00  0.00    -0.219 C 
BRANCH  19  20
ATOM     20  C0B MOL     1       0.088   7.243 -17.659  1.00  0.00     0.819 C 
ATOM     21  N0C MOL     1      -0.049   6.337 -16.740  1.00  0.00    -0.993 N 
ATOM     22  H13 MOL     1      -0.215   5.389 -17.069  1.00  0.00     0.395 HD
ATOM     23  H14 MOL     1      -0.027   6.588 -15.769  1.00  0.00     0.440 HD
ATOM     24  O0D MOL     1       0.427   8.382 -17.396  1.00  0.00    -0.614 OA
ENDBRANCH  19  20
ENDBRANCH   4  19
BRANCH   1  25
ATOM     25  C01 MOL     1      -5.747   7.669 -20.727  1.00  0.00    -0.066 C 
ATOM     26  C00 MOL     1      -6.156   7.049 -22.149  1.00  0.00    -0.126 C 
ENDBRANCH   1  25
BRANCH   2  27
ATOM     27  C04 MOL     1      -4.703   5.070 -19.360  1.00  0.00    -0.266 C 
BRANCH  27  28
ATOM     28  C05 MOL     1      -5.134   5.031 -17.915  1.00  0.00     0.870 C 
ATOM     29  O06 MOL     1      -4.741   4.215 -17.105  1.00  0.00    -0.820 OA
ATOM     30  O07 MOL     1      -5.902   5.965 -17.502  1.00  0.00    -0.676 OA
ENDBRANCH  27  28
ENDBRANCH   2  27
TORSDOF 9
ENDMDL
MODEL 8
REMARK VINA RESULT:      -5.7      2.912      3.703
REMARK  9 active torsions:
REMARK  status: ('A' for Active; 'I' for Inactive)
REMARK    1  A    between atoms: C01_2  and  C02_3 
REMARK    2  A    between atoms: C03_4  and  C04_5 
REMARK    3  A    between atoms: C04_5  and  C05_6 
REMARK    4  A    between atoms: C09_10  and  C0A_11 
REMARK    5  A    between atoms: C0A_11  and  C0B_12 
REMARK       I    between atoms: C0B_12  and  N0C_13 
REMARK    6  A    between atoms: C0E_15  and  C0F_16 
REMARK    7  A    between atoms: C0F_16  and  C0G_17 
REMARK    8  A    between atoms: C0N_23  and  C0O_24 
REMARK    9  A    between atoms: C0O_24  and  N0P_25 
ROOT
ATOM      1  C02 MOL     1       1.673   7.045  -3.283  1.00  0.00    -0.044 C 
ATOM      2  C03 MOL     1       0.321   7.053  -3.653  1.00  0.00     0.129 C 
ATOM      3  C08 MOL     1      -0.602   8.088  -3.221  1.00  0.00    -0.316 C 
ATOM      4  C09 MOL     1      -0.090   9.174  -2.535  1.00  0.00     0.109 C 
ATOM      5  C0E MOL     1       1.198   9.197  -2.084  1.00  0.00    -0.064 C 
ATOM      6  C0N MOL     1       2.099   8.204  -2.536  1.00  0.00    -0.120 C 
ENDROOT
BRANCH   5   7
ATOM      7  C0F MOL     1       1.659  10.372  -1.236  1.00  0.00     0.047 C 
BRANCH   7   8
ATOM      8  C0G MOL     1       1.630  10.265   0.265  1.00  0.00     0.171 C 
ATOM      9  C0M MOL     1       2.819  10.184   1.020  1.00  0.00    -0.195 C 
ATOM     10  C0K MOL     1       2.778  10.066   2.434  1.00  0.00    -0.062 C 
ATOM     11  C0J MOL     1       1.580   9.846   3.119  1.00  0.00    -0.135 C 
ATOM     12  C0I MOL     1       0.397   9.899   2.323  1.00  0.00    -0.071 C 
ATOM     13  C0H MOL     1       0.473  10.148   0.969  1.00  0.00    -0.152 C 
ENDBRANCH   7   8
ENDBRANCH   5   7
BRANCH   6  14
ATOM     14  C0O MOL     1       3.604   8.228  -2.114  1.00  0.00     0.092 C 
BRANCH  14  15
ATOM     15  N0P MOL     1       4.540   8.984  -3.006  1.00  0.00    -0.153 N 
ATOM     16  H0Q MOL     1       5.217   9.491  -2.461  1.00  0.00     0.257 HD
ATOM     17  H0R MOL     1       5.101   8.302  -3.507  1.00  0.00     0.244 HD
ATOM     18  H0S MOL     1       4.098   9.648  -3.627  1.00  0.00     0.246 HD
ENDBRANCH  14  15
ENDBRANCH   6  14
BRANCH   4  19
ATOM     19  C0A MOL     1      -1.048  10.375  -2.366  1.00  0.00    -0.219 C 
BRANCH  19  20
ATOM     20  C0B MOL     1      -1.662  10.926  -3.694  1.00  0.00     0.819 C 
ATOM     21  N0C MOL     1      -2.913  10.667  -3.920  1.00  0.00    -0.993 N 
ATOM     22  H13 MOL     1      -3.405  10.163  -3.186  1.00  0.00     0.395 HD
ATOM     23  H14 MOL     1      -3.337  10.923  -4.793  1.00  0.00     0.440 HD
ATOM     24  O0D MOL     1      -1.007  11.640  -4.432  1.00  0.00    -0.614 OA
ENDBRANCH  19  20
ENDBRANCH   4  19
BRANCH   1  25
ATOM     25  C01 MOL     1       2.657   5.927  -3.690  1.00  0.00    -0.066 C 
ATOM     26  C00 MOL     1       3.238   6.144  -5.169  1.00  0.00    -0.126 C 
ENDBRANCH   1  25
BRANCH   2  27
ATOM     27  C04 MOL     1      -0.369   5.957  -4.433  1.00  0.00    -0.266 C 
BRANCH  27  28
ATOM     28  C05 MOL     1      -0.726   4.727  -3.637  1.00  0.00     0.870 C 
ATOM     29  O06 MOL     1      -0.108   3.681  -3.679  1.00  0.00    -0.820 OA
ATOM     30  O07 MOL     1      -1.694   4.818  -2.808  1.00  0.00    -0.676 OA
ENDBRANCH  27  28
ENDBRANCH   2  27
TORSDOF 9
ENDMDL
MODEL 9
REMARK VINA RESULT:      -5.5      3.217      6.671
REMARK  9 active torsions:
REMARK  status: ('A' for Active; 'I' for Inactive)
REMARK    1  A    between atoms: C01_2  and  C02_3 
REMARK    2  A    between atoms: C03_4  and  C04_5 
REMARK    3  A    between atoms: C04_5  and  C05_6 
REMARK    4  A    between atoms: C09_10  and  C0A_11 
REMARK    5  A    between atoms: C0A_11  and  C0B_12 
REMARK       I    between atoms: C0B_12  and  N0C_13 
REMARK    6  A    between atoms: C0E_15  and  C0F_16 
REMARK    7  A    between atoms: C0F_16  and  C0G_17 
REMARK    8  A    between atoms: C0N_23  and  C0O_24 
REMARK    9  A    between atoms: C0O_24  and  N0P_25 
ROOT
ATOM      1  C02 MOL     1      -0.572   7.147  -3.798  1.00  0.00    -0.044 C 
ATOM      2  C03 MOL     1      -0.797   8.440  -4.291  1.00  0.00     0.129 C 
ATOM      3  C08 MOL     1       0.128   9.105  -5.192  1.00  0.00    -0.316 C 
ATOM      4  C09 MOL     1       1.195   8.378  -5.684  1.00  0.00     0.109 C 
ATOM      5  C0E MOL     1       1.511   7.143  -5.196  1.00  0.00    -0.064 C 
ATOM      6  C0N MOL     1       0.589   6.488  -4.345  1.00  0.00    -0.120 C 
ENDROOT
BRANCH   5   7
ATOM      7  C0F MOL     1       2.767   6.451  -5.701  1.00  0.00     0.047 C 
BRANCH   7   8
ATOM      8  C0G MOL     1       2.648   5.294  -6.656  1.00  0.00     0.171 C 
ATOM      9  C0M MOL     1       3.652   4.309  -6.748  1.00  0.00    -0.195 C 
ATOM     10  C0K MOL     1       3.536   3.232  -7.665  1.00  0.00    -0.062 C 
ATOM     11  C0J MOL     1       2.528   3.195  -8.632  1.00  0.00    -0.135 C 
ATOM     12  C0I MOL     1       1.546   4.226  -8.536  1.00  0.00    -0.071 C 
ATOM     13  C0H MOL     1       1.624   5.180  -7.544  1.00  0.00    -0.152 C 
ENDBRANCH   7   8
ENDBRANCH   5   7
BRANCH   6  14
ATOM     14  C0O MOL     1       0.863   5.041  -3.820  1.00  0.00     0.092 C 
BRANCH  14  15
ATOM     15  N0P MOL     1       0.109   3.931  -4.485  1.00  0.00    -0.153 N 
ATOM     16  H0Q MOL     1      -0.410   4.280  -5.274  1.00  0.00     0.257 HD
ATOM     17  H0R MOL     1       0.792   3.309  -4.907  1.00  0.00     0.244 HD
ATOM     18  H0S MOL     1      -0.544   3.440  -3.891  1.00  0.00     0.246 HD
ENDBRANCH  14  15
ENDBRANCH   6  14
BRANCH   4  19
ATOM     19  C0A MOL     1       1.966   9.025  -6.857  1.00  0.00    -0.219 C 
BRANCH  19  20
ATOM     20  C0B MOL     1       1.896  10.586  -6.916  1.00  0.00     0.819 C 
ATOM     21  N0C MOL     1       1.137  11.111  -7.828  1.00  0.00    -0.993 N 
ATOM     22  H13 MOL     1       0.609  10.457  -8.401  1.00  0.00     0.395 HD
ATOM     23  H14 MOL     1       1.118  12.105  -7.966  1.00  0.00     0.440 HD
ATOM     24  O0D MOL     1       2.466  11.265  -6.081  1.00  0.00    -0.614 OA
ENDBRANCH  19  20
ENDBRANCH   4  19
BRANCH   1  25
ATOM     25  C01 MOL     1      -1.518   6.443  -2.800  1.00  0.00    -0.066 C 
ATOM     26  C00 MOL     1      -2.767   5.756  -3.535  1.00  0.00    -0.126 C 
ENDBRANCH   1  25
BRANCH   2  27
ATOM     27  C04 MOL     1      -1.940   9.338  -3.875  1.00  0.00    -0.266 C 
BRANCH  27  28
ATOM     28  C05 MOL     1      -1.772  10.017  -2.538  1.00  0.00     0.870 C 
ATOM     29  O06 MOL     1      -2.073   9.516  -1.473  1.00  0.00    -0.820 OA
ATOM     30  O07 MOL     1      -1.204  11.161  -2.523  1.00  0.00    -0.676 OA
ENDBRANCH  27  28
ENDBRANCH   2  27
TORSDOF 9
ENDMDL
MODEL 10
REMARK VINA RESULT:      -5.4     12.246     15.477
REMARK  9 active torsions:
REMARK  status: ('A' for Active; 'I' for Inactive)
REMARK    1  A    between atoms: C01_2  and  C02_3 
REMARK    2  A    between atoms: C03_4  and  C04_5 
REMARK    3  A    between atoms: C04_5  and  C05_6 
REMARK    4  A    between atoms: C09_10  and  C0A_11 
REMARK    5  A    between atoms: C0A_11  and  C0B_12 
REMARK       I    between atoms: C0B_12  and  N0C_13 
REMARK    6  A    between atoms: C0E_15  and  C0F_16 
REMARK    7  A    between atoms: C0F_16  and  C0G_17 
REMARK    8  A    between atoms: C0N_23  and  C0O_24 
REMARK    9  A    between atoms: C0O_24  and  N0P_25 
ROOT
ATOM      1  C02 MOL     1       0.507   7.906 -17.312  1.00  0.00    -0.044 C 
ATOM      2  C03 MOL     1       0.776   9.278 -17.412  1.00  0.00     0.129 C 
ATOM      3  C08 MOL     1       0.562  10.029 -18.637  1.00  0.00    -0.316 C 
ATOM      4  C09 MOL     1      -0.059   9.391 -19.693  1.00  0.00     0.109 C 
ATOM      5  C0E MOL     1      -0.284   8.044 -19.688  1.00  0.00    -0.064 C 
ATOM      6  C0N MOL     1      -0.105   7.326 -18.482  1.00  0.00    -0.120 C 
ENDROOT
BRANCH   5   7
ATOM      7  C0F MOL     1      -0.865   7.391 -20.932  1.00  0.00     0.047 C 
BRANCH   7   8
ATOM      8  C0G MOL     1      -2.358   7.311 -21.105  1.00  0.00     0.171 C 
ATOM      9  C0M MOL     1      -3.090   8.368 -21.683  1.00  0.00    -0.195 C 
ATOM     10  C0K MOL     1      -4.499   8.288 -21.824  1.00  0.00    -0.062 C 
ATOM     11  C0J MOL     1      -5.239   7.255 -21.243  1.00  0.00    -0.135 C 
ATOM     12  C0I MOL     1      -4.472   6.217 -20.633  1.00  0.00    -0.071 C 
ATOM     13  C0H MOL     1      -3.094   6.269 -20.635  1.00  0.00    -0.152 C 
ENDBRANCH   7   8
ENDBRANCH   5   7
BRANCH   6  14
ATOM     14  C0O MOL     1      -0.423   5.797 -18.399  1.00  0.00     0.092 C 
BRANCH  14  15
ATOM     15  N0P MOL     1      -1.748   5.419 -17.811  1.00  0.00    -0.153 N 
ATOM     16  H0Q MOL     1      -1.966   4.458 -18.018  1.00  0.00     0.257 HD
ATOM     17  H0R MOL     1      -1.647   5.427 -16.800  1.00  0.00     0.244 HD
ATOM     18  H0S MOL     1      -2.531   5.977 -18.123  1.00  0.00     0.246 HD
ENDBRANCH  14  15
ENDBRANCH   6  14
BRANCH   4  19
ATOM     19  C0A MOL     1      -0.532  10.304 -20.847  1.00  0.00    -0.219 C 
BRANCH  19  20
ATOM     20  C0B MOL     1       0.568  11.241 -21.446  1.00  0.00     0.819 C 
ATOM     21  N0C MOL     1       1.510  10.680 -22.140  1.00  0.00    -0.993 N 
ATOM     22  H13 MOL     1       1.425   9.675 -22.277  1.00  0.00     0.395 HD
ATOM     23  H14 MOL     1       2.286  11.220 -22.477  1.00  0.00     0.440 HD
ATOM     24  O0D MOL     1       0.483  12.450 -21.330  1.00  0.00    -0.614 OA
ENDBRANCH  19  20
ENDBRANCH   4  19
BRANCH   1  25
ATOM     25  C01 MOL     1       0.776   7.081 -16.034  1.00  0.00    -0.066 C 
ATOM     26  C00 MOL     1       2.227   6.396 -16.053  1.00  0.00    -0.126 C 
ENDBRANCH   1  25
BRANCH   2  27
ATOM     27  C04 MOL     1       1.416  10.116 -16.329  1.00  0.00    -0.266 C 
BRANCH  27  28
ATOM     28  C05 MOL     1       2.923  10.064 -16.279  1.00  0.00     0.870 C 
ATOM     29  O06 MOL     1       3.653  10.528 -17.133  1.00  0.00    -0.820 OA
ATOM     30  O07 MOL     1       3.463   9.568 -15.233  1.00  0.00    -0.676 OA
ENDBRANCH  27  28
ENDBRANCH   2  27
TORSDOF 9
ENDMDL
MODEL 11
REMARK VINA RESULT:      -5.4      2.961      4.817
REMARK  9 active torsions:
REMARK  status: ('A' for Active; 'I' for Inactive)
REMARK    1  A    between atoms: C01_2  and  C02_3 
REMARK    2  A    between atoms: C03_4  and  C04_5 
REMARK    3  A    between atoms: C04_5  and  C05_6 
REMARK    4  A    between atoms: C09_10  and  C0A_11 
REMARK    5  A    between atoms: C0A_11  and  C0B_12 
REMARK       I    between atoms: C0B_12  and  N0C_13 
REMARK    6  A    between atoms: C0E_15  and  C0F_16 
REMARK    7  A    between atoms: C0F_16  and  C0G_17 
REMARK    8  A    between atoms: C0N_23  and  C0O_24 
REMARK    9  A    between atoms: C0O_24  and  N0P_25 
ROOT
ATOM      1  C02 MOL     1      -0.753   7.928  -3.204  1.00  0.00    -0.044 C 
ATOM      2  C03 MOL     1       0.404   7.143  -3.311  1.00  0.00     0.129 C 
ATOM      3  C08 MOL     1       1.729   7.659  -3.017  1.00  0.00    -0.316 C 
ATOM      4  C09 MOL     1       1.830   8.929  -2.479  1.00  0.00     0.109 C 
ATOM      5  C0E MOL     1       0.756   9.769  -2.414  1.00  0.00    -0.064 C 
ATOM      6  C0N MOL     1      -0.535   9.250  -2.670  1.00  0.00    -0.120 C 
ENDROOT
BRANCH   5   7
ATOM      7  C0F MOL     1       0.965  11.192  -1.919  1.00  0.00     0.047 C 
BRANCH   7   8
ATOM      8  C0G MOL     1       0.702  11.526  -0.476  1.00  0.00     0.171 C 
ATOM      9  C0M MOL     1       0.475  10.518   0.483  1.00  0.00    -0.195 C 
ATOM     10  C0K MOL     1       0.210  10.846   1.838  1.00  0.00    -0.062 C 
ATOM     11  C0J MOL     1      -0.014  12.164   2.245  1.00  0.00    -0.135 C 
ATOM     12  C0I MOL     1       0.188  13.160   1.243  1.00  0.00    -0.071 C 
ATOM     13  C0H MOL     1       0.575  12.805  -0.032  1.00  0.00    -0.152 C 
ENDBRANCH   7   8
ENDBRANCH   5   7
BRANCH   6  14
ATOM     14  C0O MOL     1      -1.807  10.148  -2.532  1.00  0.00     0.092 C 
BRANCH  14  15
ATOM     15  N0P MOL     1      -2.084  11.098  -3.657  1.00  0.00    -0.153 N 
ATOM     16  H0Q MOL     1      -1.516  10.874  -4.457  1.00  0.00     0.257 HD
ATOM     17  H0R MOL     1      -3.030  10.920  -3.980  1.00  0.00     0.244 HD
ATOM     18  H0S MOL     1      -1.927  12.073  -3.443  1.00  0.00     0.246 HD
ENDBRANCH  14  15
ENDBRANCH   6  14
BRANCH   4  19
ATOM     19  C0A MOL     1       3.215   9.310  -1.909  1.00  0.00    -0.219 C 
BRANCH  19  20
ATOM     20  C0B MOL     1       4.302   9.652  -2.979  1.00  0.00     0.819 C 
ATOM     21  N0C MOL     1       5.369   8.914  -2.997  1.00  0.00    -0.993 N 
ATOM     22  H13 MOL     1       5.387   8.139  -2.338  1.00  0.00     0.395 HD
ATOM     23  H14 MOL     1       6.135   9.138  -3.605  1.00  0.00     0.440 HD
ATOM     24  O0D MOL     1       4.104  10.520  -3.810  1.00  0.00    -0.614 OA
ENDBRANCH  19  20
ENDBRANCH   4  19
BRANCH   1  25
ATOM     25  C01 MOL     1      -2.164   7.412  -3.562  1.00  0.00    -0.066 C 
ATOM     26  C00 MOL     1      -2.590   7.807  -5.056  1.00  0.00    -0.126 C 
ENDBRANCH   1  25
BRANCH   2  27
ATOM     27  C04 MOL     1       0.444   5.729  -3.844  1.00  0.00    -0.266 C 
BRANCH  27  28
ATOM     28  C05 MOL     1       0.822   5.598  -5.298  1.00  0.00     0.870 C 
ATOM     29  O06 MOL     1       0.162   6.037  -6.219  1.00  0.00    -0.820 OA
ATOM     30  O07 MOL     1       1.947   5.058  -5.570  1.00  0.00    -0.676 OA
ENDBRANCH  27  28
ENDBRANCH   2  27
TORSDOF 9
ENDMDL
MODEL 12
REMARK VINA RESULT:      -5.4     14.313     17.616
REMARK  9 active torsions:
REMARK  status: ('A' for Active; 'I' for Inactive)
REMARK    1  A    between atoms: C01_2  and  C02_3 
REMARK    2  A    between atoms: C03_4  and  C04_5 
REMARK    3  A    between atoms: C04_5  and  C05_6 
REMARK    4  A    between atoms: C09_10  and  C0A_11 
REMARK    5  A    between atoms: C0A_11  and  C0B_12 
REMARK       I    between atoms: C0B_12  and  N0C_13 
REMARK    6  A    between atoms: C0E_15  and  C0F_16 
REMARK    7  A    between atoms: C0F_16  and  C0G_17 
REMARK    8  A    between atoms: C0N_23  and  C0O_24 
REMARK    9  A    between atoms: C0O_24  and  N0P_25 
ROOT
ATOM      1  C02 MOL     1      -3.481   8.538 -22.046  1.00  0.00    -0.044 C 
ATOM      2  C03 MOL     1      -3.970   7.685 -21.047  1.00  0.00     0.129 C 
ATOM      3  C08 MOL     1      -3.120   6.744 -20.338  1.00  0.00    -0.316 C 
ATOM      4  C09 MOL     1      -1.758   6.796 -20.565  1.00  0.00     0.109 C 
ATOM      5  C0E MOL     1      -1.224   7.550 -21.570  1.00  0.00    -0.064 C 
ATOM      6  C0N MOL     1      -2.051   8.488 -22.234  1.00  0.00    -0.120 C 
ENDROOT
BRANCH   5   7
ATOM      7  C0F MOL     1       0.270   7.468 -21.838  1.00  0.00     0.047 C 
BRANCH   7   8
ATOM      8  C0G MOL     1       0.793   6.491 -22.855  1.00  0.00     0.171 C 
ATOM      9  C0M MOL     1       1.222   5.200 -22.482  1.00  0.00    -0.195 C 
ATOM     10  C0K MOL     1       1.730   4.292 -23.448  1.00  0.00    -0.062 C 
ATOM     11  C0J MOL     1       1.994   4.689 -24.762  1.00  0.00    -0.135 C 
ATOM     12  C0I MOL     1       1.581   6.013 -25.099  1.00  0.00    -0.071 C 
ATOM     13  C0H MOL     1       0.969   6.818 -24.162  1.00  0.00    -0.152 C 
ENDBRANCH   7   8
ENDBRANCH   5   7
BRANCH   6  14
ATOM     14  C0O MOL     1      -1.474   9.433 -23.337  1.00  0.00     0.092 C 
BRANCH  14  15
ATOM     15  N0P MOL     1      -0.941  10.755 -22.877  1.00  0.00    -0.153 N 
ATOM     16  H0Q MOL     1      -1.537  11.149 -22.167  1.00  0.00     0.257 HD
ATOM     17  H0R MOL     1      -0.071  10.579 -22.385  1.00  0.00     0.244 HD
ATOM     18  H0S MOL     1      -0.840  11.452 -23.601  1.00  0.00     0.246 HD
ENDBRANCH  14  15
ENDBRANCH   6  14
BRANCH   4  19
ATOM     19  C0A MOL     1      -0.880   5.995 -19.577  1.00  0.00    -0.219 C 
BRANCH  19  20
ATOM     20  C0B MOL     1      -0.503   6.750 -18.261  1.00  0.00     0.819 C 
ATOM     21  N0C MOL     1      -0.512   6.063 -17.160  1.00  0.00    -0.993 N 
ATOM     22  H13 MOL     1      -0.719   5.072 -17.254  1.00  0.00     0.395 HD
ATOM     23  H14 MOL     1      -0.360   6.514 -16.277  1.00  0.00     0.440 HD
ATOM     24  O0D MOL     1      -0.134   7.910 -18.295  1.00  0.00    -0.614 OA
ENDBRANCH  19  20
ENDBRANCH   4  19
BRANCH   1  25
ATOM     25  C01 MOL     1      -4.378   9.508 -22.846  1.00  0.00    -0.066 C 
ATOM     26  C00 MOL     1      -5.077   8.790 -24.099  1.00  0.00    -0.126 C 
ENDBRANCH   1  25
BRANCH   2  27
ATOM     27  C04 MOL     1      -5.425   7.548 -20.662  1.00  0.00    -0.266 C 
BRANCH  27  28
ATOM     28  C05 MOL     1      -5.809   8.191 -19.353  1.00  0.00     0.870 C 
ATOM     29  O06 MOL     1      -6.417   7.626 -18.465  1.00  0.00    -0.820 OA
ATOM     30  O07 MOL     1      -5.399   9.381 -19.135  1.00  0.00    -0.676 OA
ENDBRANCH  27  28
ENDBRANCH   2  27
TORSDOF 9
ENDMDL
MODEL 13
REMARK VINA RESULT:      -5.3     13.228     15.903
REMARK  9 active torsions:
REMARK  status: ('A' for Active; 'I' for Inactive)
REMARK    1  A    between atoms: C01_2  and  C02_3 
REMARK    2  A    between atoms: C03_4  and  C04_5 
REMARK    3  A    between atoms: C04_5  and  C05_6 
REMARK    4  A    between atoms: C09_10  and  C0A_11 
REMARK    5  A    between atoms: C0A_11  and  C0B_12 
REMARK       I    between atoms: C0B_12  and  N0C_13 
REMARK    6  A    between atoms: C0E_15  and  C0F_16 
REMARK    7  A    between atoms: C0F_16  and  C0G_17 
REMARK    8  A    between atoms: C0N_23  and  C0O_24 
REMARK    9  A    between atoms: C0O_24  and  N0P_25 
ROOT
ATOM      1  C02 MOL     1      -3.621   6.635 -19.997  1.00  0.00    -0.044 C 
ATOM      2  C03 MOL     1      -4.218   7.766 -20.570  1.00  0.00     0.129 C 
ATOM      3  C08 MOL     1      -3.469   8.971 -20.885  1.00  0.00    -0.316 C 
ATOM      4  C09 MOL     1      -2.095   8.941 -20.738  1.00  0.00     0.109 C 
ATOM      5  C0E MOL     1      -1.459   7.902 -20.122  1.00  0.00    -0.064 C 
ATOM      6  C0N MOL     1      -2.189   6.720 -19.849  1.00  0.00    -0.120 C 
ENDROOT
BRANCH   5   7
ATOM      7  C0F MOL     1       0.041   7.990 -19.891  1.00  0.00     0.047 C 
BRANCH   7   8
ATOM      8  C0G MOL     1       0.564   8.398 -18.540  1.00  0.00     0.171 C 
ATOM      9  C0M MOL     1       0.473   9.730 -18.087  1.00  0.00    -0.195 C 
ATOM     10  C0K MOL     1       0.986  10.106 -16.818  1.00  0.00    -0.062 C 
ATOM     11  C0J MOL     1       1.754   9.230 -16.047  1.00  0.00    -0.135 C 
ATOM     12  C0I MOL     1       1.858   7.898 -16.549  1.00  0.00    -0.071 C 
ATOM     13  C0H MOL     1       1.232   7.539 -17.724  1.00  0.00    -0.152 C 
ENDBRANCH   7   8
ENDBRANCH   5   7
BRANCH   6  14
ATOM     14  C0O MOL     1      -1.492   5.470 -19.218  1.00  0.00     0.092 C 
BRANCH  14  15
ATOM     15  N0P MOL     1      -1.417   5.428 -17.723  1.00  0.00    -0.153 N 
ATOM     16  H0Q MOL     1      -0.458   5.442 -17.416  1.00  0.00     0.257 HD
ATOM     17  H0R MOL     1      -1.790   6.305 -17.373  1.00  0.00     0.244 HD
ATOM     18  H0S MOL     1      -1.855   4.625 -17.294  1.00  0.00     0.246 HD
ENDBRANCH  14  15
ENDBRANCH   6  14
BRANCH   4  19
ATOM     19  C0A MOL     1      -1.325  10.127 -21.364  1.00  0.00    -0.219 C 
BRANCH  19  20
ATOM     20  C0B MOL     1      -1.323  10.165 -22.928  1.00  0.00     0.819 C 
ATOM     21  N0C MOL     1      -1.540  11.313 -23.492  1.00  0.00    -0.993 N 
ATOM     22  H13 MOL     1      -1.646  12.106 -22.864  1.00  0.00     0.395 HD
ATOM     23  H14 MOL     1      -1.633  11.382 -24.489  1.00  0.00     0.440 HD
ATOM     24  O0D MOL     1      -1.043   9.171 -23.573  1.00  0.00    -0.614 OA
ENDBRANCH  19  20
ENDBRANCH   4  19
BRANCH   1  25
ATOM     25  C01 MOL     1      -4.410   5.366 -19.608  1.00  0.00    -0.066 C 
ATOM     26  C00 MOL     1      -5.043   5.474 -18.138  1.00  0.00    -0.126 C 
ENDBRANCH   1  25
BRANCH   2  27
ATOM     27  C04 MOL     1      -5.699   7.928 -20.826  1.00  0.00    -0.266 C 
BRANCH  27  28
ATOM     28  C05 MOL     1      -6.162   7.527 -22.204  1.00  0.00     0.870 C 
ATOM     29  O06 MOL     1      -6.679   6.459 -22.469  1.00  0.00    -0.820 OA
ATOM     30  O07 MOL     1      -6.077   8.399 -23.135  1.00  0.00    -0.676 OA
ENDBRANCH  27  28
ENDBRANCH   2  27
TORSDOF 9
ENDMDL
MODEL 14
REMARK VINA RESULT:      -5.2      2.699      3.665
REMARK  9 active torsions:
REMARK  status: ('A' for Active; 'I' for Inactive)
REMARK    1  A    between atoms: C01_2  and  C02_3 
REMARK    2  A    between atoms: C03_4  and  C04_5 
REMARK    3  A    between atoms: C04_5  and  C05_6 
REMARK    4  A    between atoms: C09_10  and  C0A_11 
REMARK    5  A    between atoms: C0A_11  and  C0B_12 
REMARK       I    between atoms: C0B_12  and  N0C_13 
REMARK    6  A    between atoms: C0E_15  and  C0F_16 
REMARK    7  A    between atoms: C0F_16  and  C0G_17 
REMARK    8  A    between atoms: C0N_23  and  C0O_24 
REMARK    9  A    between atoms: C0O_24  and  N0P_25 
ROOT
ATOM      1  C02 MOL     1       2.460   6.844  -3.742  1.00  0.00    -0.044 C 
ATOM      2  C03 MOL     1       1.433   6.800  -4.694  1.00  0.00     0.129 C 
ATOM      3  C08 MOL     1       0.788   7.998  -5.204  1.00  0.00    -0.316 C 
ATOM      4  C09 MOL     1       1.306   9.225  -4.834  1.00  0.00     0.109 C 
ATOM      5  C0E MOL     1       2.256   9.342  -3.861  1.00  0.00    -0.064 C 
ATOM      6  C0N MOL     1       2.903   8.172  -3.394  1.00  0.00    -0.120 C 
ENDROOT
BRANCH   5   7
ATOM      7  C0F MOL     1       2.695  10.730  -3.424  1.00  0.00     0.047 C 
BRANCH   7   8
ATOM      8  C0G MOL     1       1.999  11.404  -2.272  1.00  0.00     0.171 C 
ATOM      9  C0M MOL     1       2.724  12.079  -1.268  1.00  0.00    -0.195 C 
ATOM     10  C0K MOL     1       2.057  12.695  -0.177  1.00  0.00    -0.062 C 
ATOM     11  C0J MOL     1       0.690  12.512   0.048  1.00  0.00    -0.135 C 
ATOM     12  C0I MOL     1      -0.009  11.794  -0.968  1.00  0.00    -0.071 C 
ATOM     13  C0H MOL     1       0.656  11.324  -2.081  1.00  0.00    -0.152 C 
ENDBRANCH   7   8
ENDBRANCH   5   7
BRANCH   6  14
ATOM     14  C0O MOL     1       4.053   8.254  -2.338  1.00  0.00     0.092 C 
BRANCH  14  15
ATOM     15  N0P MOL     1       5.446   8.394  -2.872  1.00  0.00    -0.153 N 
ATOM     16  H0Q MOL     1       5.663   9.362  -3.045  1.00  0.00     0.257 HD
ATOM     17  H0R MOL     1       6.085   8.137  -2.127  1.00  0.00     0.244 HD
ATOM     18  H0S MOL     1       5.629   7.890  -3.728  1.00  0.00     0.246 HD
ENDBRANCH  14  15
ENDBRANCH   6  14
BRANCH   4  19
ATOM     19  C0A MOL     1       0.785  10.443  -5.631  1.00  0.00    -0.219 C 
BRANCH  19  20
ATOM     20  C0B MOL     1       1.615  10.808  -6.904  1.00  0.00     0.819 C 
ATOM     21  N0C MOL     1       1.304  10.202  -8.009  1.00  0.00    -0.993 N 
ATOM     22  H13 MOL     1       0.508   9.570  -7.962  1.00  0.00     0.395 HD
ATOM     23  H14 MOL     1       1.856  10.334  -8.836  1.00  0.00     0.440 HD
ATOM     24  O0D MOL     1       2.456  11.688  -6.866  1.00  0.00    -0.614 OA
ENDBRANCH  19  20
ENDBRANCH   4  19
BRANCH   1  25
ATOM     25  C01 MOL     1       3.123   5.580  -3.151  1.00  0.00    -0.066 C 
ATOM     26  C00 MOL     1       4.316   5.036  -4.074  1.00  0.00    -0.126 C 
ENDBRANCH   1  25
BRANCH   2  27
ATOM     27  C04 MOL     1       0.793   5.536  -5.220  1.00  0.00    -0.266 C 
BRANCH  27  28
ATOM     28  C05 MOL     1      -0.166   4.857  -4.275  1.00  0.00     0.870 C 
ATOM     29  O06 MOL     1      -0.032   3.721  -3.862  1.00  0.00    -0.820 OA
ATOM     30  O07 MOL     1      -1.138   5.549  -3.820  1.00  0.00    -0.676 OA
ENDBRANCH  27  28
ENDBRANCH   2  27
TORSDOF 9
ENDMDL
MODEL 15
REMARK VINA RESULT:      -5.1     13.935     16.320
REMARK  9 active torsions:
REMARK  status: ('A' for Active; 'I' for Inactive)
REMARK    1  A    between atoms: C01_2  and  C02_3 
REMARK    2  A    between atoms: C03_4  and  C04_5 
REMARK    3  A    between atoms: C04_5  and  C05_6 
REMARK    4  A    between atoms: C09_10  and  C0A_11 
REMARK    5  A    between atoms: C0A_11  and  C0B_12 
REMARK       I    between atoms: C0B_12  and  N0C_13 
REMARK    6  A    between atoms: C0E_15  and  C0F_16 
REMARK    7  A    between atoms: C0F_16  and  C0G_17 
REMARK    8  A    between atoms: C0N_23  and  C0O_24 
REMARK    9  A    between atoms: C0O_24  and  N0P_25 
ROOT
ATOM      1  C02 MOL     1      -3.902   6.918 -20.283  1.00  0.00    -0.044 C 
ATOM      2  C03 MOL     1      -4.753   8.030 -20.348  1.00  0.00     0.129 C 
ATOM      3  C08 MOL     1      -4.290   9.347 -20.748  1.00  0.00    -0.316 C 
ATOM      4  C09 MOL     1      -2.994   9.469 -21.212  1.00  0.00     0.109 C 
ATOM      5  C0E MOL     1      -2.094   8.448 -21.111  1.00  0.00    -0.064 C 
ATOM      6  C0N MOL     1      -2.559   7.160 -20.752  1.00  0.00    -0.120 C 
ENDROOT
BRANCH   5   7
ATOM      7  C0F MOL     1      -0.654   8.691 -21.534  1.00  0.00     0.047 C 
BRANCH   7   8
ATOM      8  C0G MOL     1       0.314   9.312 -20.563  1.00  0.00     0.171 C 
ATOM      9  C0M MOL     1       1.467   9.992 -21.007  1.00  0.00    -0.195 C 
ATOM     10  C0K MOL     1       2.381  10.558 -20.081  1.00  0.00    -0.062 C 
ATOM     11  C0J MOL     1       2.282  10.316 -18.708  1.00  0.00    -0.135 C 
ATOM     12  C0I MOL     1       1.123   9.594 -18.293  1.00  0.00    -0.071 C 
ATOM     13  C0H MOL     1       0.188   9.175 -19.216  1.00  0.00    -0.152 C 
ENDBRANCH   7   8
ENDBRANCH   5   7
BRANCH   6  14
ATOM     14  C0O MOL     1      -1.586   5.937 -20.699  1.00  0.00     0.092 C 
BRANCH  14  15
ATOM     15  N0P MOL     1      -0.781   5.774 -19.446  1.00  0.00    -0.153 N 
ATOM     16  H0Q MOL     1       0.202   5.859 -19.644  1.00  0.00     0.257 HD
ATOM     17  H0R MOL     1      -0.974   6.577 -18.854  1.00  0.00     0.244 HD
ATOM     18  H0S MOL     1      -0.915   4.898 -18.962  1.00  0.00     0.246 HD
ENDBRANCH  14  15
ENDBRANCH   6  14
BRANCH   4  19
ATOM     19  C0A MOL     1      -2.649  10.810 -21.901  1.00  0.00    -0.219 C 
BRANCH  19  20
ATOM     20  C0B MOL     1      -3.183  10.961 -23.363  1.00  0.00     0.819 C 
ATOM     21  N0C MOL     1      -3.504  12.156 -23.755  1.00  0.00    -0.993 N 
ATOM     22  H13 MOL     1      -3.336  12.905 -23.089  1.00  0.00     0.395 HD
ATOM     23  H14 MOL     1      -3.930  12.300 -24.652  1.00  0.00     0.440 HD
ATOM     24  O0D MOL     1      -3.207  10.005 -24.117  1.00  0.00    -0.614 OA
ENDBRANCH  19  20
ENDBRANCH   4  19
BRANCH   1  25
ATOM     25  C01 MOL     1      -4.364   5.522 -19.811  1.00  0.00    -0.066 C 
ATOM     26  C00 MOL     1      -4.171   5.324 -18.231  1.00  0.00    -0.126 C 
ENDBRANCH   1  25
BRANCH   2  27
ATOM     27  C04 MOL     1      -6.201   8.038 -19.913  1.00  0.00    -0.266 C 
BRANCH  27  28
ATOM     28  C05 MOL     1      -6.451   8.551 -18.517  1.00  0.00     0.870 C 
ATOM     29  O06 MOL     1      -6.464   9.727 -18.211  1.00  0.00    -0.820 OA
ATOM     30  O07 MOL     1      -6.745   7.694 -17.616  1.00  0.00    -0.676 OA
ENDBRANCH  27  28
ENDBRANCH   2  27
TORSDOF 9
ENDMDL
MODEL 16
REMARK VINA RESULT:      -5.1     16.805     19.741
REMARK  9 active torsions:
REMARK  status: ('A' for Active; 'I' for Inactive)
REMARK    1  A    between atoms: C01_2  and  C02_3 
REMARK    2  A    between atoms: C03_4  and  C04_5 
REMARK    3  A    between atoms: C04_5  and  C05_6 
REMARK    4  A    between atoms: C09_10  and  C0A_11 
REMARK    5  A    between atoms: C0A_11  and  C0B_12 
REMARK       I    between atoms: C0B_12  and  N0C_13 
REMARK    6  A    between atoms: C0E_15  and  C0F_16 
REMARK    7  A    between atoms: C0F_16  and  C0G_17 
REMARK    8  A    between atoms: C0N_23  and  C0O_24 
REMARK    9  A    between atoms: C0O_24  and  N0P_25 
ROOT
ATOM      1  C02 MOL     1      -4.553   7.845 -21.321  1.00  0.00    -0.044 C 
ATOM      2  C03 MOL     1      -3.221   8.272 -21.226  1.00  0.00     0.129 C 
ATOM      3  C08 MOL     1      -2.540   8.958 -22.310  1.00  0.00    -0.316 C 
ATOM      4  C09 MOL     1      -3.281   9.321 -23.419  1.00  0.00     0.109 C 
ATOM      5  C0E MOL     1      -4.559   8.879 -23.607  1.00  0.00    -0.064 C 
ATOM      6  C0N MOL     1      -5.226   8.241 -22.535  1.00  0.00    -0.120 C 
ENDROOT
BRANCH   5   7
ATOM      7  C0F MOL     1      -5.272   9.222 -24.906  1.00  0.00     0.047 C 
BRANCH   7   8
ATOM      8  C0G MOL     1      -5.263   8.238 -26.043  1.00  0.00     0.171 C 
ATOM      9  C0M MOL     1      -6.413   7.496 -26.384  1.00  0.00    -0.195 C 
ATOM     10  C0K MOL     1      -6.388   6.558 -27.448  1.00  0.00    -0.062 C 
ATOM     11  C0J MOL     1      -5.196   6.197 -28.082  1.00  0.00    -0.135 C 
ATOM     12  C0I MOL     1      -4.042   6.940 -27.691  1.00  0.00    -0.071 C 
ATOM     13  C0H MOL     1      -4.137   7.938 -26.744  1.00  0.00    -0.152 C 
ENDBRANCH   7   8
ENDBRANCH   5   7
BRANCH   6  14
ATOM     14  C0O MOL     1      -6.716   7.786 -22.668  1.00  0.00     0.092 C 
BRANCH  14  15
ATOM     15  N0P MOL     1      -6.949   6.355 -23.044  1.00  0.00    -0.153 N 
ATOM     16  H0Q MOL     1      -7.593   5.921 -22.403  1.00  0.00     0.257 HD
ATOM     17  H0R MOL     1      -7.453   6.349 -23.926  1.00  0.00     0.244 HD
ATOM     18  H0S MOL     1      -6.120   5.778 -23.071  1.00  0.00     0.246 HD
ENDBRANCH  14  15
ENDBRANCH   6  14
BRANCH   4  19
ATOM     19  C0A MOL     1      -2.592  10.302 -24.396  1.00  0.00    -0.219 C 
BRANCH  19  20
ATOM     20  C0B MOL     1      -1.853  11.502 -23.721  1.00  0.00     0.819 C 
ATOM     21  N0C MOL     1      -2.590  12.450 -23.228  1.00  0.00    -0.993 N 
ATOM     22  H13 MOL     1      -3.596  12.307 -23.280  1.00  0.00     0.395 HD
ATOM     23  H14 MOL     1      -2.170  13.283 -22.858  1.00  0.00     0.440 HD
ATOM     24  O0D MOL     1      -0.642  11.493 -23.593  1.00  0.00    -0.614 OA
ENDBRANCH  19  20
ENDBRANCH   4  19
BRANCH   1  25
ATOM     25  C01 MOL     1      -5.278   7.070 -20.199  1.00  0.00    -0.066 C 
ATOM     26  C00 MOL     1      -6.023   8.051 -19.172  1.00  0.00    -0.126 C 
ENDBRANCH   1  25
BRANCH   2  27
ATOM     27  C04 MOL     1      -2.301   7.984 -20.061  1.00  0.00    -0.266 C 
BRANCH  27  28
ATOM     28  C05 MOL     1      -1.708   6.598 -20.036  1.00  0.00     0.870 C 
ATOM     29  O06 MOL     1      -1.016   6.133 -20.921  1.00  0.00    -0.820 OA
ATOM     30  O07 MOL     1      -1.883   5.898 -18.981  1.00  0.00    -0.676 OA
ENDBRANCH  27  28
ENDBRANCH   2  27
TORSDOF 9
ENDMDL
MODEL 17
REMARK VINA RESULT:      -5.1     15.175     18.174
REMARK  9 active torsions:
REMARK  status: ('A' for Active; 'I' for Inactive)
REMARK    1  A    between atoms: C01_2  and  C02_3 
REMARK    2  A    between atoms: C03_4  and  C04_5 
REMARK    3  A    between atoms: C04_5  and  C05_6 
REMARK    4  A    between atoms: C09_10  and  C0A_11 
REMARK    5  A    between atoms: C0A_11  and  C0B_12 
REMARK       I    between atoms: C0B_12  and  N0C_13 
REMARK    6  A    between atoms: C0E_15  and  C0F_16 
REMARK    7  A    between atoms: C0F_16  and  C0G_17 
REMARK    8  A    between atoms: C0N_23  and  C0O_24 
REMARK    9  A    between atoms: C0O_24  and  N0P_25 
ROOT
ATOM      1  C02 MOL     1      -5.167   8.116 -21.774  1.00  0.00    -0.044 C 
ATOM      2  C03 MOL     1      -4.706   7.748 -20.502  1.00  0.00     0.129 C 
ATOM      3  C08 MOL     1      -3.313   7.870 -20.109  1.00  0.00    -0.316 C 
ATOM      4  C09 MOL     1      -2.444   8.501 -20.979  1.00  0.00     0.109 C 
ATOM      5  C0E MOL     1      -2.807   8.820 -22.255  1.00  0.00    -0.064 C 
ATOM      6  C0N MOL     1      -4.172   8.730 -22.619  1.00  0.00    -0.120 C 
ENDROOT
BRANCH   5   7
ATOM      7  C0F MOL     1      -1.763   9.405 -23.193  1.00  0.00     0.047 C 
BRANCH   7   8
ATOM      8  C0G MOL     1      -1.002   8.497 -24.120  1.00  0.00     0.171 C 
ATOM      9  C0M MOL     1       0.185   7.855 -23.711  1.00  0.00    -0.195 C 
ATOM     10  C0K MOL     1       0.904   7.015 -24.600  1.00  0.00    -0.062 C 
ATOM     11  C0J MOL     1       0.578   6.928 -25.956  1.00  0.00    -0.135 C 
ATOM     12  C0I MOL     1      -0.609   7.619 -26.348  1.00  0.00    -0.071 C 
ATOM     13  C0H MOL     1      -1.353   8.317 -25.421  1.00  0.00    -0.152 C 
ENDBRANCH   7   8
ENDBRANCH   5   7
BRANCH   6  14
ATOM     14  C0O MOL     1      -4.656   9.158 -24.043  1.00  0.00     0.092 C 
BRANCH  14  15
ATOM     15  N0P MOL     1      -5.094  10.581 -24.203  1.00  0.00    -0.153 N 
ATOM     16  H0Q MOL     1      -4.909  11.105 -23.364  1.00  0.00     0.257 HD
ATOM     17  H0R MOL     1      -4.485  11.012 -24.892  1.00  0.00     0.244 HD
ATOM     18  H0S MOL     1      -6.072  10.706 -24.423  1.00  0.00     0.246 HD
ENDBRANCH  14  15
ENDBRANCH   6  14
BRANCH   4  19
ATOM     19  C0A MOL     1      -1.060   8.871 -20.396  1.00  0.00    -0.219 C 
BRANCH  19  20
ATOM     20  C0B MOL     1      -0.355   7.733 -19.587  1.00  0.00     0.819 C 
ATOM     21  N0C MOL     1       0.127   6.736 -20.265  1.00  0.00    -0.993 N 
ATOM     22  H13 MOL     1       0.045   6.804 -21.277  1.00  0.00     0.395 HD
ATOM     23  H14 MOL     1       0.515   5.940 -19.794  1.00  0.00     0.440 HD
ATOM     24  O0D MOL     1      -0.194   7.834 -18.385  1.00  0.00    -0.614 OA
ENDBRANCH  19  20
ENDBRANCH   4  19
BRANCH   1  25
ATOM     25  C01 MOL     1      -6.634   7.947 -22.226  1.00  0.00    -0.066 C 
ATOM     26  C00 MOL     1      -6.911   6.492 -22.841  1.00  0.00    -0.126 C 
ENDBRANCH   1  25
BRANCH   2  27
ATOM     27  C04 MOL     1      -5.548   7.086 -19.435  1.00  0.00    -0.266 C 
BRANCH  27  28
ATOM     28  C05 MOL     1      -6.183   8.024 -18.440  1.00  0.00     0.870 C 
ATOM     29  O06 MOL     1      -6.309   9.221 -18.611  1.00  0.00    -0.820 OA
ATOM     30  O07 MOL     1      -6.691   7.513 -17.385  1.00  0.00    -0.676 OA
ENDBRANCH  27  28
ENDBRANCH   2  27
TORSDOF 9
ENDMDL
MODEL 18
REMARK VINA RESULT:      -5.1      4.978      7.689
REMARK  9 active torsions:
REMARK  status: ('A' for Active; 'I' for Inactive)
REMARK    1  A    between atoms: C01_2  and  C02_3 
REMARK    2  A    between atoms: C03_4  and  C04_5 
REMARK    3  A    between atoms: C04_5  and  C05_6 
REMARK    4  A    between atoms: C09_10  and  C0A_11 
REMARK    5  A    between atoms: C0A_11  and  C0B_12 
REMARK       I    between atoms: C0B_12  and  N0C_13 
REMARK    6  A    between atoms: C0E_15  and  C0F_16 
REMARK    7  A    between atoms: C0F_16  and  C0G_17 
REMARK    8  A    between atoms: C0N_23  and  C0O_24 
REMARK    9  A    between atoms: C0O_24  and  N0P_25 
ROOT
ATOM      1  C02 MOL     1       1.706  10.521  -1.401  1.00  0.00    -0.044 C 
ATOM      2  C03 MOL     1       0.556  11.322  -1.375  1.00  0.00     0.129 C 
ATOM      3  C08 MOL     1       0.228  12.184  -0.253  1.00  0.00    -0.316 C 
ATOM      4  C09 MOL     1       1.158  12.319   0.760  1.00  0.00     0.109 C 
ATOM      5  C0E MOL     1       2.263  11.520   0.833  1.00  0.00    -0.064 C 
ATOM      6  C0N MOL     1       2.593  10.707  -0.278  1.00  0.00    -0.120 C 
ENDROOT
BRANCH   5   7
ATOM      7  C0F MOL     1       3.182  11.644   2.038  1.00  0.00     0.047 C 
BRANCH   7   8
ATOM      8  C0G MOL     1       2.998  10.724   3.214  1.00  0.00     0.171 C 
ATOM      9  C0M MOL     1       2.230   9.545   3.113  1.00  0.00    -0.195 C 
ATOM     10  C0K MOL     1       2.049   8.694   4.234  1.00  0.00    -0.062 C 
ATOM     11  C0J MOL     1       2.464   9.068   5.515  1.00  0.00    -0.135 C 
ATOM     12  C0I MOL     1       3.208  10.283   5.591  1.00  0.00    -0.071 C 
ATOM     13  C0H MOL     1       3.476  11.015   4.453  1.00  0.00    -0.152 C 
ENDBRANCH   7   8
ENDBRANCH   5   7
BRANCH   6  14
ATOM     14  C0O MOL     1       3.889   9.833  -0.280  1.00  0.00     0.092 C 
BRANCH  14  15
ATOM     15  N0P MOL     1       5.133  10.477  -0.812  1.00  0.00    -0.153 N 
ATOM     16  H0Q MOL     1       5.572  11.038  -0.101  1.00  0.00     0.257 HD
ATOM     17  H0R MOL     1       5.809   9.739  -0.984  1.00  0.00     0.244 HD
ATOM     18  H0S MOL     1       4.997  11.070  -1.619  1.00  0.00     0.246 HD
ENDBRANCH  14  15
ENDBRANCH   6  14
BRANCH   4  19
ATOM     19  C0A MOL     1       0.898  13.464   1.765  1.00  0.00    -0.219 C 
BRANCH  19  20
ATOM     20  C0B MOL     1      -0.208  13.172   2.831  1.00  0.00     0.819 C 
ATOM     21  N0C MOL     1       0.167  12.594   3.931  1.00  0.00    -0.993 N 
ATOM     22  H13 MOL     1       1.165  12.421   4.026  1.00  0.00     0.395 HD
ATOM     23  H14 MOL     1      -0.510  12.307   4.613  1.00  0.00     0.440 HD
ATOM     24  O0D MOL     1      -1.351  13.555   2.661  1.00  0.00    -0.614 OA
ENDBRANCH  19  20
ENDBRANCH   4  19
BRANCH   1  25
ATOM     25  C01 MOL     1       2.045   9.561  -2.561  1.00  0.00    -0.066 C 
ATOM     26  C00 MOL     1       2.773  10.315  -3.775  1.00  0.00    -0.126 C 
ENDBRANCH   1  25
BRANCH   2  27
ATOM     27  C04 MOL     1      -0.529  11.312  -2.428  1.00  0.00    -0.266 C 
BRANCH  27  28
ATOM     28  C05 MOL     1      -1.549  10.209  -2.292  1.00  0.00     0.870 C 
ATOM     29  O06 MOL     1      -2.490  10.050  -3.045  1.00  0.00    -0.820 OA
ATOM     30  O07 MOL     1      -1.364   9.342  -1.372  1.00  0.00    -0.676 OA
ENDBRANCH  27  28
ENDBRANCH   2  27
TORSDOF 9
ENDMDL
MODEL 19
REMARK VINA RESULT:      -5.1      8.413     12.239
REMARK  9 active torsions:
REMARK  status: ('A' for Active; 'I' for Inactive)
REMARK    1  A    between atoms: C01_2  and  C02_3 
REMARK    2  A    between atoms: C03_4  and  C04_5 
REMARK    3  A    between atoms: C04_5  and  C05_6 
REMARK    4  A    between atoms: C09_10  and  C0A_11 
REMARK    5  A    between atoms: C0A_11  and  C0B_12 
REMARK       I    between atoms: C0B_12  and  N0C_13 
REMARK    6  A    between atoms: C0E_15  and  C0F_16 
REMARK    7  A    between atoms: C0F_16  and  C0G_17 
REMARK    8  A    between atoms: C0N_23  and  C0O_24 
REMARK    9  A    between atoms: C0O_24  and  N0P_25 
ROOT
ATOM      1  C02 MOL     1      -2.866  12.220   5.916  1.00  0.00    -0.044 C 
ATOM      2  C03 MOL     1      -2.333  11.082   6.537  1.00  0.00     0.129 C 
ATOM      3  C08 MOL     1      -0.999  10.584   6.247  1.00  0.00    -0.316 C 
ATOM      4  C09 MOL     1      -0.183  11.346   5.431  1.00  0.00     0.109 C 
ATOM      5  C0E MOL     1      -0.659  12.423   4.741  1.00  0.00    -0.064 C 
ATOM      6  C0N MOL     1      -1.946  12.921   5.054  1.00  0.00    -0.120 C 
ENDROOT
BRANCH   5   7
ATOM      7  C0F MOL     1       0.266  13.143   3.772  1.00  0.00     0.047 C 
BRANCH   7   8
ATOM      8  C0G MOL     1       0.334  12.698   2.336  1.00  0.00     0.171 C 
ATOM      9  C0M MOL     1       0.379  13.630   1.279  1.00  0.00    -0.195 C 
ATOM     10  C0K MOL     1       0.425  13.198  -0.072  1.00  0.00    -0.062 C 
ATOM     11  C0J MOL     1       0.248  11.857  -0.422  1.00  0.00    -0.135 C 
ATOM     12  C0I MOL     1       0.169  10.942   0.670  1.00  0.00    -0.071 C 
ATOM     13  C0H MOL     1       0.262  11.391   1.970  1.00  0.00    -0.152 C 
ENDBRANCH   7   8
ENDBRANCH   5   7
BRANCH   6  14
ATOM     14  C0O MOL     1      -2.509  14.199   4.351  1.00  0.00     0.092 C 
BRANCH  14  15
ATOM     15  N0P MOL     1      -2.229  15.510   5.018  1.00  0.00    -0.153 N 
ATOM     16  H0Q MOL     1      -1.812  15.365   5.923  1.00  0.00     0.257 HD
ATOM     17  H0R MOL     1      -1.493  15.970   4.490  1.00  0.00     0.244 HD
ATOM     18  H0S MOL     1      -3.035  16.104   5.152  1.00  0.00     0.246 HD
ENDBRANCH  14  15
ENDBRANCH   6  14
BRANCH   4  19
ATOM     19  C0A MOL     1       1.307  10.934   5.398  1.00  0.00    -0.219 C 
BRANCH  19  20
ATOM     20  C0B MOL     1       1.574   9.440   5.024  1.00  0.00     0.819 C 
ATOM     21  N0C MOL     1       2.244   8.726   5.876  1.00  0.00    -0.993 N 
ATOM     22  H13 MOL     1       2.499   9.191   6.744  1.00  0.00     0.395 HD
ATOM     23  H14 MOL     1       2.516   7.787   5.652  1.00  0.00     0.440 HD
ATOM     24  O0D MOL     1       1.094   8.957   4.014  1.00  0.00    -0.614 OA
ENDBRANCH  19  20
ENDBRANCH   4  19
BRANCH   1  25
ATOM     25  C01 MOL     1      -4.299  12.734   6.174  1.00  0.00    -0.066 C 
ATOM     26  C00 MOL     1      -4.370  13.712   7.444  1.00  0.00    -0.126 C 
ENDBRANCH   1  25
BRANCH   2  27
ATOM     27  C04 MOL     1      -3.091  10.175   7.480  1.00  0.00    -0.266 C 
BRANCH  27  28
ATOM     28  C05 MOL     1      -2.962  10.515   8.944  1.00  0.00     0.870 C 
ATOM     29  O06 MOL     1      -1.916  10.495   9.562  1.00  0.00    -0.820 OA
ATOM     30  O07 MOL     1      -4.009  10.924   9.550  1.00  0.00    -0.676 OA
ENDBRANCH  27  28
ENDBRANCH   2  27
TORSDOF 9
ENDMDL
MODEL 20
REMARK VINA RESULT:      -5.0      2.562      3.663
REMARK  9 active torsions:
REMARK  status: ('A' for Active; 'I' for Inactive)
REMARK    1  A    between atoms: C01_2  and  C02_3 
REMARK    2  A    between atoms: C03_4  and  C04_5 
REMARK    3  A    between atoms: C04_5  and  C05_6 
REMARK    4  A    between atoms: C09_10  and  C0A_11 
REMARK    5  A    between atoms: C0A_11  and  C0B_12 
REMARK       I    between atoms: C0B_12  and  N0C_13 
REMARK    6  A    between atoms: C0E_15  and  C0F_16 
REMARK    7  A    between atoms: C0F_16  and  C0G_17 
REMARK    8  A    between atoms: C0N_23  and  C0O_24 
REMARK    9  A    between atoms: C0O_24  and  N0P_25 
ROOT
ATOM      1  C02 MOL     1       2.923   8.895  -4.469  1.00  0.00    -0.044 C 
ATOM      2  C03 MOL     1       1.775   8.579  -5.209  1.00  0.00     0.129 C 
ATOM      3  C08 MOL     1       0.494   9.224  -4.980  1.00  0.00    -0.316 C 
ATOM      4  C09 MOL     1       0.447  10.284  -4.094  1.00  0.00     0.109 C 
ATOM      5  C0E MOL     1       1.505  10.599  -3.292  1.00  0.00    -0.064 C 
ATOM      6  C0N MOL     1       2.758   9.990  -3.543  1.00  0.00    -0.120 C 
ENDROOT
BRANCH   5   7
ATOM      7  C0F MOL     1       1.343  11.702  -2.258  1.00  0.00     0.047 C 
BRANCH   7   8
ATOM      8  C0G MOL     1       0.884  11.358  -0.867  1.00  0.00     0.171 C 
ATOM      9  C0M MOL     1       0.649  12.359   0.099  1.00  0.00    -0.195 C 
ATOM     10  C0K MOL     1       0.234  12.022   1.413  1.00  0.00    -0.062 C 
ATOM     11  C0J MOL     1       0.213  10.698   1.860  1.00  0.00    -0.135 C 
ATOM     12  C0I MOL     1       0.489   9.709   0.869  1.00  0.00    -0.071 C 
ATOM     13  C0H MOL     1       0.760  10.076  -0.433  1.00  0.00    -0.152 C 
ENDBRANCH   7   8
ENDBRANCH   5   7
BRANCH   6  14
ATOM     14  C0O MOL     1       4.023  10.372  -2.706  1.00  0.00     0.092 C 
BRANCH  14  15
ATOM     15  N0P MOL     1       4.217   9.643  -1.412  1.00  0.00    -0.153 N 
ATOM     16  H0Q MOL     1       3.515   9.917  -0.744  1.00  0.00     0.257 HD
ATOM     17  H0R MOL     1       4.015   8.662  -1.581  1.00  0.00     0.244 HD
ATOM     18  H0S MOL     1       5.117   9.781  -0.974  1.00  0.00     0.246 HD
ENDBRANCH  14  15
ENDBRANCH   6  14
BRANCH   4  19
ATOM     19  C0A MOL     1      -0.854  11.119  -4.113  1.00  0.00    -0.219 C 
BRANCH  19  20
ATOM     20  C0B MOL     1      -2.122  10.384  -3.569  1.00  0.00     0.819 C 
ATOM     21  N0C MOL     1      -2.211  10.227  -2.284  1.00  0.00    -0.993 N 
ATOM     22  H13 MOL     1      -1.464  10.642  -1.732  1.00  0.00     0.395 HD
ATOM     23  H14 MOL     1      -2.959   9.691  -1.886  1.00  0.00     0.440 HD
ATOM     24  O0D MOL     1      -3.021  10.057  -4.323  1.00  0.00    -0.614 OA
ENDBRANCH  19  20
ENDBRANCH   4  19
BRANCH   1  25
ATOM     25  C01 MOL     1       4.280   8.185  -4.663  1.00  0.00    -0.066 C 
ATOM     26  C00 MOL     1       5.120   8.810  -5.878  1.00  0.00    -0.126 C 
ENDBRANCH   1  25
BRANCH   2  27
ATOM     27  C04 MOL     1       1.686   7.474  -6.237  1.00  0.00    -0.266 C 
BRANCH  27  28
ATOM     28  C05 MOL     1       1.088   6.181  -5.743  1.00  0.00     0.870 C 
ATOM     29  O06 MOL     1       1.515   5.545  -4.799  1.00  0.00    -0.820 OA
ATOM     30  O07 MOL     1       0.017   5.771  -6.306  1.00  0.00    -0.676 OA
ENDBRANCH  27  28
ENDBRANCH   2  27
TORSDOF 9
ENDMDL
