MODEL 1
REMARK VINA RESULT:      -6.0      0.000      0.000
REMARK  9 active torsions:
REMARK  status: ('A' for Active; 'I' for Inactive)
REMARK    1  A    between atoms: C01_2  and  C02_3 
REMARK    2  A    between atoms: C03_4  and  C04_5 
REMARK    3  A    between atoms: C04_5  and  C05_6 
REMARK    4  A    between atoms: C09_10  and  C0A_11 
REMARK    5  A    between atoms: C0A_11  and  C0B_12 
REMARK       I    between atoms: C0B_12  and  N0C_13 
REMARK    6  A    between atoms: C0E_15  and  C0F_16 
REMARK    7  A    between atoms: C0F_16  and  C0G_17 
REMARK    8  A    between atoms: C0N_23  and  C0O_24 
REMARK    9  A    between atoms: C0O_24  and  N0P_25 
ROOT
ATOM      1  C02 MOL     1       1.971  10.384  -1.067  1.00  0.00    -0.044 C 
ATOM      2  C03 MOL     1       0.849  11.195  -0.851  1.00  0.00     0.129 C 
ATOM      3  C08 MOL     1      -0.095  11.522  -1.906  1.00  0.00    -0.316 C 
ATOM      4  C09 MOL     1       0.051  10.893  -3.128  1.00  0.00     0.109 C 
ATOM      5  C0E MOL     1       1.155  10.149  -3.428  1.00  0.00    -0.064 C 
ATOM      6  C0N MOL     1       2.052   9.808  -2.387  1.00  0.00    -0.120 C 
ENDROOT
BRANCH   5   7
ATOM      7  C0F MOL     1       1.303   9.584  -4.832  1.00  0.00     0.047 C 
BRANCH   7   8
ATOM      8  C0G MOL     1       2.100  10.341  -5.859  1.00  0.00     0.171 C 
ATOM      9  C0M MOL     1       1.505  11.329  -6.671  1.00  0.00    -0.195 C 
ATOM     10  C0K MOL     1       2.262  12.024  -7.649  1.00  0.00    -0.062 C 
ATOM     11  C0J MOL     1       3.567  11.643  -7.975  1.00  0.00    -0.135 C 
ATOM     12  C0I MOL     1       4.130  10.616  -7.160  1.00  0.00    -0.071 C 
ATOM     13  C0H MOL     1       3.402  10.058  -6.131  1.00  0.00    -0.152 C 
ENDBRANCH   7   8
ENDBRANCH   5   7
BRANCH   6  14
ATOM     14  C0O MOL     1       3.290   8.892  -2.658  1.00  0.00     0.092 C 
BRANCH  14  15
ATOM     15  N0P MOL     1       3.100   7.423  -2.436  1.00  0.00    -0.153 N 
ATOM     16  H0Q MOL     1       3.276   6.912  -3.285  1.00  0.00     0.257 HD
ATOM     17  H0R MOL     1       3.838   7.111  -1.813  1.00  0.00     0.244 HD
ATOM     18  H0S MOL     1       2.182   7.154  -2.111  1.00  0.00     0.246 HD
ENDBRANCH  14  15
ENDBRANCH   6  14
BRANCH   4  19
ATOM     19  C0A MOL     1      -1.138  11.040  -4.106  1.00  0.00    -0.219 C 
BRANCH  19  20
ATOM     20  C0B MOL     1      -2.292  10.004  -3.907  1.00  0.00     0.819 C 
ATOM     21  N0C MOL     1      -3.415  10.245  -4.511  1.00  0.00    -0.993 N 
ATOM     22  H13 MOL     1      -3.434  11.071  -5.106  1.00  0.00     0.395 HD
ATOM     23  H14 MOL     1      -4.215   9.661  -4.353  1.00  0.00     0.440 HD
ATOM     24  O0D MOL     1      -2.103   8.976  -3.282  1.00  0.00    -0.614 OA
ENDBRANCH  19  20
ENDBRANCH   4  19
BRANCH   1  25
ATOM     25  C01 MOL     1       3.013  10.068   0.029  1.00  0.00    -0.066 C 
ATOM     26  C00 MOL     1       4.152  11.194   0.121  1.00  0.00    -0.126 C 
ENDBRANCH   1  25
BRANCH   2  27
ATOM     27  C04 MOL     1       0.537  11.916   0.441  1.00  0.00    -0.266 C 
BRANCH  27  28
ATOM     28  C05 MOL     1       0.641  13.420   0.381  1.00  0.00     0.870 C 
ATOM     29  O06 MOL     1      -0.308  14.175   0.463  1.00  0.00    -0.820 OA
ATOM     30  O07 MOL     1       1.810  13.930   0.319  1.00  0.00    -0.676 OA
ENDBRANCH  27  28
ENDBRANCH   2  27
TORSDOF 9
ENDMDL
MODEL 2
REMARK VINA RESULT:      -5.7      3.530      6.008
REMARK  9 active torsions:
REMARK  status: ('A' for Active; 'I' for Inactive)
REMARK    1  A    between atoms: C01_2  and  C02_3 
REMARK    2  A    between atoms: C03_4  and  C04_5 
REMARK    3  A    between atoms: C04_5  and  C05_6 
REMARK    4  A    between atoms: C09_10  and  C0A_11 
REMARK    5  A    between atoms: C0A_11  and  C0B_12 
REMARK       I    between atoms: C0B_12  and  N0C_13 
REMARK    6  A    between atoms: C0E_15  and  C0F_16 
REMARK    7  A    between atoms: C0F_16  and  C0G_17 
REMARK    8  A    between atoms: C0N_23  and  C0O_24 
REMARK    9  A    between atoms: C0O_24  and  N0P_25 
ROOT
ATOM      1  C02 MOL     1       1.742   6.470  -5.676  1.00  0.00    -0.044 C 
ATOM      2  C03 MOL     1       0.986   6.184  -4.531  1.00  0.00     0.129 C 
ATOM      3  C08 MOL     1       0.394   7.223  -3.706  1.00  0.00    -0.316 C 
ATOM      4  C09 MOL     1       0.467   8.529  -4.150  1.00  0.00     0.109 C 
ATOM      5  C0E MOL     1       1.244   8.885  -5.214  1.00  0.00    -0.064 C 
ATOM      6  C0N MOL     1       1.790   7.868  -6.032  1.00  0.00    -0.120 C 
ENDROOT
BRANCH   5   7
ATOM      7  C0F MOL     1       1.370  10.357  -5.574  1.00  0.00     0.047 C 
BRANCH   7   8
ATOM      8  C0G MOL     1       2.506  11.168  -5.012  1.00  0.00     0.171 C 
ATOM      9  C0M MOL     1       3.505  11.712  -5.845  1.00  0.00    -0.195 C 
ATOM     10  C0K MOL     1       4.581  12.460  -5.301  1.00  0.00    -0.062 C 
ATOM     11  C0J MOL     1       4.799  12.540  -3.923  1.00  0.00    -0.135 C 
ATOM     12  C0I MOL     1       3.788  11.949  -3.106  1.00  0.00    -0.071 C 
ATOM     13  C0H MOL     1       2.688  11.345  -3.676  1.00  0.00    -0.152 C 
ENDBRANCH   7   8
ENDBRANCH   5   7
BRANCH   6  14
ATOM     14  C0O MOL     1       2.621   8.218  -7.309  1.00  0.00     0.092 C 
BRANCH  14  15
ATOM     15  N0P MOL     1       1.848   8.448  -8.571  1.00  0.00    -0.153 N 
ATOM     16  H0Q MOL     1       1.890   9.417  -8.841  1.00  0.00     0.257 HD
ATOM     17  H0R MOL     1       2.339   7.971  -9.321  1.00  0.00     0.244 HD
ATOM     18  H0S MOL     1       0.871   8.193  -8.528  1.00  0.00     0.246 HD
ENDBRANCH  14  15
ENDBRANCH   6  14
BRANCH   4  19
ATOM     19  C0A MOL     1      -0.427   9.545  -3.402  1.00  0.00    -0.219 C 
BRANCH  19  20
ATOM     20  C0B MOL     1      -0.717   9.198  -1.906  1.00  0.00     0.819 C 
ATOM     21  N0C MOL     1       0.241   9.400  -1.054  1.00  0.00    -0.993 N 
ATOM     22  H13 MOL     1       1.091   9.814  -1.429  1.00  0.00     0.395 HD
ATOM     23  H14 MOL     1       0.140   9.117  -0.097  1.00  0.00     0.440 HD
ATOM     24  O0D MOL     1      -1.827   8.838  -1.556  1.00  0.00    -0.614 OA
ENDBRANCH  19  20
ENDBRANCH   4  19
BRANCH   1  25
ATOM     25  C01 MOL     1       2.422   5.383  -6.537  1.00  0.00    -0.066 C 
ATOM     26  C00 MOL     1       1.405   4.721  -7.587  1.00  0.00    -0.126 C 
ENDBRANCH   1  25
BRANCH   2  27
ATOM     27  C04 MOL     1       0.785   4.804  -3.949  1.00  0.00    -0.266 C 
BRANCH  27  28
ATOM     28  C05 MOL     1      -0.579   4.202  -4.173  1.00  0.00     0.870 C 
ATOM     29  O06 MOL     1      -1.597   4.595  -3.637  1.00  0.00    -0.820 OA
ATOM     30  O07 MOL     1      -0.680   3.271  -5.041  1.00  0.00    -0.676 OA
ENDBRANCH  27  28
ENDBRANCH   2  27
TORSDOF 9
ENDMDL
MODEL 3
REMARK VINA RESULT:      -5.6      2.334      5.820
REMARK  9 active torsions:
REMARK  status: ('A' for Active; 'I' for Inactive)
REMARK    1  A    between atoms: C01_2  and  C02_3 
REMARK    2  A    between atoms: C03_4  and  C04_5 
REMARK    3  A    between atoms: C04_5  and  C05_6 
REMARK    4  A    between atoms: C09_10  and  C0A_11 
REMARK    5  A    between atoms: C0A_11  and  C0B_12 
REMARK       I    between atoms: C0B_12  and  N0C_13 
REMARK    6  A    between atoms: C0E_15  and  C0F_16 
REMARK    7  A    between atoms: C0F_16  and  C0G_17 
REMARK    8  A    between atoms: C0N_23  and  C0O_24 
REMARK    9  A    between atoms: C0O_24  and  N0P_25 
ROOT
ATOM      1  C02 MOL     1       3.224  10.696  -3.517  1.00  0.00    -0.044 C 
ATOM      2  C03 MOL     1       2.339  10.967  -4.570  1.00  0.00     0.129 C 
ATOM      3  C08 MOL     1       0.896  10.907  -4.415  1.00  0.00    -0.316 C 
ATOM      4  C09 MOL     1       0.385  10.711  -3.146  1.00  0.00     0.109 C 
ATOM      5  C0E MOL     1       1.184  10.373  -2.092  1.00  0.00    -0.064 C 
ATOM      6  C0N MOL     1       2.588  10.466  -2.242  1.00  0.00    -0.120 C 
ENDROOT
BRANCH   5   7
ATOM      7  C0F MOL     1       0.540  10.058  -0.751  1.00  0.00     0.047 C 
BRANCH   7   8
ATOM      8  C0G MOL     1       0.411  11.140   0.287  1.00  0.00     0.171 C 
ATOM      9  C0M MOL     1       0.088  10.840   1.626  1.00  0.00    -0.195 C 
ATOM     10  C0K MOL     1      -0.048  11.870   2.592  1.00  0.00    -0.062 C 
ATOM     11  C0J MOL     1      -0.048  13.220   2.232  1.00  0.00    -0.135 C 
ATOM     12  C0I MOL     1       0.246  13.491   0.862  1.00  0.00    -0.071 C 
ATOM     13  C0H MOL     1       0.504  12.461  -0.018  1.00  0.00    -0.152 C 
ENDBRANCH   7   8
ENDBRANCH   5   7
BRANCH   6  14
ATOM     14  C0O MOL     1       3.549  10.168  -1.045  1.00  0.00     0.092 C 
BRANCH  14  15
ATOM     15  N0P MOL     1       3.879   8.729  -0.792  1.00  0.00    -0.153 N 
ATOM     16  H0Q MOL     1       3.877   8.534   0.196  1.00  0.00     0.257 HD
ATOM     17  H0R MOL     1       3.107   8.172  -1.145  1.00  0.00     0.244 HD
ATOM     18  H0S MOL     1       4.772   8.424  -1.155  1.00  0.00     0.246 HD
ENDBRANCH  14  15
ENDBRANCH   6  14
BRANCH   4  19
ATOM     19  C0A MOL     1      -1.133  10.955  -2.987  1.00  0.00    -0.219 C 
BRANCH  19  20
ATOM     20  C0B MOL     1      -2.048   9.786  -3.477  1.00  0.00     0.819 C 
ATOM     21  N0C MOL     1      -2.713   9.974  -4.576  1.00  0.00    -0.993 N 
ATOM     22  H13 MOL     1      -2.543  10.855  -5.055  1.00  0.00     0.395 HD
ATOM     23  H14 MOL     1      -3.377   9.292  -4.893  1.00  0.00     0.440 HD
ATOM     24  O0D MOL     1      -2.059   8.718  -2.891  1.00  0.00    -0.614 OA
ENDBRANCH  19  20
ENDBRANCH   4  19
BRANCH   1  25
ATOM     25  C01 MOL     1       4.760  10.705  -3.676  1.00  0.00    -0.066 C 
ATOM     26  C00 MOL     1       5.367  12.187  -3.585  1.00  0.00    -0.126 C 
ENDBRANCH   1  25
BRANCH   2  27
ATOM     27  C04 MOL     1       2.752  11.236  -5.999  1.00  0.00    -0.266 C 
BRANCH  27  28
ATOM     28  C05 MOL     1       1.849  10.646  -7.053  1.00  0.00     0.870 C 
ATOM     29  O06 MOL     1       1.755   9.456  -7.287  1.00  0.00    -0.820 OA
ATOM     30  O07 MOL     1       1.077  11.443  -7.686  1.00  0.00    -0.676 OA
ENDBRANCH  27  28
ENDBRANCH   2  27
TORSDOF 9
ENDMDL
MODEL 4
REMARK VINA RESULT:      -5.5      2.229      2.647
REMARK  9 active torsions:
REMARK  status: ('A' for Active; 'I' for Inactive)
REMARK    1  A    between atoms: C01_2  and  C02_3 
REMARK    2  A    between atoms: C03_4  and  C04_5 
REMARK    3  A    between atoms: C04_5  and  C05_6 
REMARK    4  A    between atoms: C09_10  and  C0A_11 
REMARK    5  A    between atoms: C0A_11  and  C0B_12 
REMARK       I    between atoms: C0B_12  and  N0C_13 
REMARK    6  A    between atoms: C0E_15  and  C0F_16 
REMARK    7  A    between atoms: C0F_16  and  C0G_17 
REMARK    8  A    between atoms: C0N_23  and  C0O_24 
REMARK    9  A    between atoms: C0O_24  and  N0P_25 
ROOT
ATOM      1  C02 MOL     1       2.058  11.282  -1.796  1.00  0.00    -0.044 C 
ATOM      2  C03 MOL     1       0.797  11.347  -1.187  1.00  0.00     0.129 C 
ATOM      3  C08 MOL     1      -0.441  11.282  -1.944  1.00  0.00    -0.316 C 
ATOM      4  C09 MOL     1      -0.365  11.008  -3.296  1.00  0.00     0.109 C 
ATOM      5  C0E MOL     1       0.826  11.002  -3.964  1.00  0.00    -0.064 C 
ATOM      6  C0N MOL     1       2.027  11.032  -3.217  1.00  0.00    -0.120 C 
ENDROOT
BRANCH   5   7
ATOM      7  C0F MOL     1       0.823  10.810  -5.472  1.00  0.00     0.047 C 
BRANCH   7   8
ATOM      8  C0G MOL     1       1.315   9.515  -6.059  1.00  0.00     0.171 C 
ATOM      9  C0M MOL     1       1.952   9.471  -7.316  1.00  0.00    -0.195 C 
ATOM     10  C0K MOL     1       2.395   8.241  -7.868  1.00  0.00    -0.062 C 
ATOM     11  C0J MOL     1       2.067   7.014  -7.286  1.00  0.00    -0.135 C 
ATOM     12  C0I MOL     1       1.391   7.089  -6.031  1.00  0.00    -0.071 C 
ATOM     13  C0H MOL     1       1.095   8.311  -5.465  1.00  0.00    -0.152 C 
ENDBRANCH   7   8
ENDBRANCH   5   7
BRANCH   6  14
ATOM     14  C0O MOL     1       3.419  10.948  -3.925  1.00  0.00     0.092 C 
BRANCH  14  15
ATOM     15  N0P MOL     1       3.972  12.227  -4.474  1.00  0.00    -0.153 N 
ATOM     16  H0Q MOL     1       3.501  12.478  -5.328  1.00  0.00     0.257 HD
ATOM     17  H0R MOL     1       3.713  12.971  -3.833  1.00  0.00     0.244 HD
ATOM     18  H0S MOL     1       4.963  12.216  -4.671  1.00  0.00     0.246 HD
ENDBRANCH  14  15
ENDBRANCH   6  14
BRANCH   4  19
ATOM     19  C0A MOL     1      -1.702  10.654  -3.987  1.00  0.00    -0.219 C 
BRANCH  19  20
ATOM     20  C0B MOL     1      -2.068   9.134  -3.985  1.00  0.00     0.819 C 
ATOM     21  N0C MOL     1      -2.384   8.599  -5.125  1.00  0.00    -0.993 N 
ATOM     22  H13 MOL     1      -2.320   9.208  -5.937  1.00  0.00     0.395 HD
ATOM     23  H14 MOL     1      -2.708   7.651  -5.171  1.00  0.00     0.440 HD
ATOM     24  O0D MOL     1      -1.971   8.473  -2.967  1.00  0.00    -0.614 OA
ENDBRANCH  19  20
ENDBRANCH   4  19
BRANCH   1  25
ATOM     25  C01 MOL     1       3.384  11.400  -1.014  1.00  0.00    -0.066 C 
ATOM     26  C00 MOL     1       3.889   9.980  -0.464  1.00  0.00    -0.126 C 
ENDBRANCH   1  25
BRANCH   2  27
ATOM     27  C04 MOL     1       0.558  11.601   0.284  1.00  0.00    -0.266 C 
BRANCH  27  28
ATOM     28  C05 MOL     1       0.578  10.376   1.162  1.00  0.00     0.870 C 
ATOM     29  O06 MOL     1      -0.132   9.403   0.996  1.00  0.00    -0.820 OA
ATOM     30  O07 MOL     1       1.453  10.328   2.092  1.00  0.00    -0.676 OA
ENDBRANCH  27  28
ENDBRANCH   2  27
TORSDOF 9
ENDMDL
MODEL 5
REMARK VINA RESULT:      -5.5     13.629     16.777
REMARK  9 active torsions:
REMARK  status: ('A' for Active; 'I' for Inactive)
REMARK    1  A    between atoms: C01_2  and  C02_3 
REMARK    2  A    between atoms: C03_4  and  C04_5 
REMARK    3  A    between atoms: C04_5  and  C05_6 
REMARK    4  A    between atoms: C09_10  and  C0A_11 
REMARK    5  A    between atoms: C0A_11  and  C0B_12 
REMARK       I    between atoms: C0B_12  and  N0C_13 
REMARK    6  A    between atoms: C0E_15  and  C0F_16 
REMARK    7  A    between atoms: C0F_16  and  C0G_17 
REMARK    8  A    between atoms: C0N_23  and  C0O_24 
REMARK    9  A    between atoms: C0O_24  and  N0P_25 
ROOT
ATOM      1  C02 MOL     1       0.868   9.751 -19.525  1.00  0.00    -0.044 C 
ATOM      2  C03 MOL     1       1.748   9.309 -18.527  1.00  0.00     0.129 C 
ATOM      3  C08 MOL     1       1.799   7.926 -18.086  1.00  0.00    -0.316 C 
ATOM      4  C09 MOL     1       1.049   6.993 -18.777  1.00  0.00     0.109 C 
ATOM      5  C0E MOL     1       0.123   7.362 -19.709  1.00  0.00    -0.064 C 
ATOM      6  C0N MOL     1       0.101   8.705 -20.156  1.00  0.00    -0.120 C 
ENDROOT
BRANCH   5   7
ATOM      7  C0F MOL     1      -0.750   6.291 -20.344  1.00  0.00     0.047 C 
BRANCH   7   8
ATOM      8  C0G MOL     1      -2.098   5.980 -19.754  1.00  0.00     0.171 C 
ATOM      9  C0M MOL     1      -2.229   5.185 -18.597  1.00  0.00    -0.195 C 
ATOM     10  C0K MOL     1      -3.507   4.884 -18.059  1.00  0.00    -0.062 C 
ATOM     11  C0J MOL     1      -4.685   5.203 -18.740  1.00  0.00    -0.135 C 
ATOM     12  C0I MOL     1      -4.518   5.978 -19.927  1.00  0.00    -0.071 C 
ATOM     13  C0H MOL     1      -3.262   6.363 -20.344  1.00  0.00    -0.152 C 
ENDBRANCH   7   8
ENDBRANCH   5   7
BRANCH   6  14
ATOM     14  C0O MOL     1      -0.885   9.165 -21.279  1.00  0.00     0.092 C 
BRANCH  14  15
ATOM     15  N0P MOL     1      -2.243   9.615 -20.836  1.00  0.00    -0.153 N 
ATOM     16  H0Q MOL     1      -2.522   9.127 -20.000  1.00  0.00     0.257 HD
ATOM     17  H0R MOL     1      -2.161  10.580 -20.532  1.00  0.00     0.244 HD
ATOM     18  H0S MOL     1      -2.980   9.487 -21.516  1.00  0.00     0.246 HD
ENDBRANCH  14  15
ENDBRANCH   6  14
BRANCH   4  19
ATOM     19  C0A MOL     1       1.367   5.512 -18.468  1.00  0.00    -0.219 C 
BRANCH  19  20
ATOM     20  C0B MOL     1       1.516   5.168 -16.950  1.00  0.00     0.819 C 
ATOM     21  N0C MOL     1       2.720   5.126 -16.468  1.00  0.00    -0.993 N 
ATOM     22  H13 MOL     1       3.468   5.370 -17.114  1.00  0.00     0.395 HD
ATOM     23  H14 MOL     1       2.882   4.829 -15.524  1.00  0.00     0.440 HD
ATOM     24  O0D MOL     1       0.533   5.033 -16.244  1.00  0.00    -0.614 OA
ENDBRANCH  19  20
ENDBRANCH   4  19
BRANCH   1  25
ATOM     25  C01 MOL     1       0.764  11.226 -19.970  1.00  0.00    -0.066 C 
ATOM     26  C00 MOL     1       1.894  11.614 -21.040  1.00  0.00    -0.126 C 
ENDBRANCH   1  25
BRANCH   2  27
ATOM     27  C04 MOL     1       2.656  10.204 -17.714  1.00  0.00    -0.266 C 
BRANCH  27  28
ATOM     28  C05 MOL     1       2.493  10.100 -16.219  1.00  0.00     0.870 C 
ATOM     29  O06 MOL     1       3.371   9.745 -15.457  1.00  0.00    -0.820 OA
ATOM     30  O07 MOL     1       1.383  10.486 -15.716  1.00  0.00    -0.676 OA
ENDBRANCH  27  28
ENDBRANCH   2  27
TORSDOF 9
ENDMDL
MODEL 6
REMARK VINA RESULT:      -5.5      3.202      5.003
REMARK  9 active torsions:
REMARK  status: ('A' for Active; 'I' for Inactive)
REMARK    1  A    between atoms: C01_2  and  C02_3 
REMARK    2  A    between atoms: C03_4  and  C04_5 
REMARK    3  A    between atoms: C04_5  and  C05_6 
REMARK    4  A    between atoms: C09_10  and  C0A_11 
REMARK    5  A    between atoms: C0A_11  and  C0B_12 
REMARK       I    between atoms: C0B_12  and  N0C_13 
REMARK    6  A    between atoms: C0E_15  and  C0F_16 
REMARK    7  A    between atoms: C0F_16  and  C0G_17 
REMARK    8  A    between atoms: C0N_23  and  C0O_24 
REMARK    9  A    between atoms: C0O_24  and  N0P_25 
ROOT
ATOM      1  C02 MOL     1       2.939  10.879  -5.012  1.00  0.00    -0.044 C 
ATOM      2  C03 MOL     1       2.902  11.276  -3.668  1.00  0.00     0.129 C 
ATOM      3  C08 MOL     1       1.864  10.838  -2.751  1.00  0.00    -0.316 C 
ATOM      4  C09 MOL     1       0.963   9.887  -3.193  1.00  0.00     0.109 C 
ATOM      5  C0E MOL     1       0.898   9.511  -4.503  1.00  0.00    -0.064 C 
ATOM      6  C0N MOL     1       1.931   9.915  -5.382  1.00  0.00    -0.120 C 
ENDROOT
BRANCH   5   7
ATOM      7  C0F MOL     1      -0.195   8.548  -4.939  1.00  0.00     0.047 C 
BRANCH   7   8
ATOM      8  C0G MOL     1      -0.062   7.081  -4.634  1.00  0.00     0.171 C 
ATOM      9  C0M MOL     1      -1.123   6.349  -4.061  1.00  0.00    -0.195 C 
ATOM     10  C0K MOL     1      -0.979   4.970  -3.761  1.00  0.00    -0.062 C 
ATOM     11  C0J MOL     1       0.257   4.323  -3.848  1.00  0.00    -0.135 C 
ATOM     12  C0I MOL     1       1.321   5.101  -4.398  1.00  0.00    -0.071 C 
ATOM     13  C0H MOL     1       1.104   6.401  -4.801  1.00  0.00    -0.152 C 
ENDBRANCH   7   8
ENDBRANCH   5   7
BRANCH   6  14
ATOM     14  C0O MOL     1       1.950   9.447  -6.874  1.00  0.00     0.092 C 
BRANCH  14  15
ATOM     15  N0P MOL     1       1.220  10.311  -7.857  1.00  0.00    -0.153 N 
ATOM     16  H0Q MOL     1       0.425  10.749  -7.421  1.00  0.00     0.257 HD
ATOM     17  H0R MOL     1       1.827  11.093  -8.085  1.00  0.00     0.244 HD
ATOM     18  H0S MOL     1       0.883   9.832  -8.680  1.00  0.00     0.246 HD
ENDBRANCH  14  15
ENDBRANCH   6  14
BRANCH   4  19
ATOM     19  C0A MOL     1       0.078   9.241  -2.102  1.00  0.00    -0.219 C 
BRANCH  19  20
ATOM     20  C0B MOL     1      -1.379   9.800  -2.011  1.00  0.00     0.819 C 
ATOM     21  N0C MOL     1      -1.608  10.949  -2.568  1.00  0.00    -0.993 N 
ATOM     22  H13 MOL     1      -0.825  11.370  -3.062  1.00  0.00     0.395 HD
ATOM     23  H14 MOL     1      -2.502  11.395  -2.469  1.00  0.00     0.440 HD
ATOM     24  O0D MOL     1      -2.269   9.135  -1.513  1.00  0.00    -0.614 OA
ENDBRANCH  19  20
ENDBRANCH   4  19
BRANCH   1  25
ATOM     25  C01 MOL     1       4.005  11.374  -6.013  1.00  0.00    -0.066 C 
ATOM     26  C00 MOL     1       5.329  10.470  -5.981  1.00  0.00    -0.126 C 
ENDBRANCH   1  25
BRANCH   2  27
ATOM     27  C04 MOL     1       3.843  12.275  -3.034  1.00  0.00    -0.266 C 
BRANCH  27  28
ATOM     28  C05 MOL     1       5.125  11.698  -2.490  1.00  0.00     0.870 C 
ATOM     29  O06 MOL     1       5.181  10.774  -1.702  1.00  0.00    -0.820 OA
ATOM     30  O07 MOL     1       6.224  12.161  -2.949  1.00  0.00    -0.676 OA
ENDBRANCH  27  28
ENDBRANCH   2  27
TORSDOF 9
ENDMDL
MODEL 7
REMARK VINA RESULT:      -5.5      3.652      6.730
REMARK  9 active torsions:
REMARK  status: ('A' for Active; 'I' for Inactive)
REMARK    1  A    between atoms: C01_2  and  C02_3 
REMARK    2  A    between atoms: C03_4  and  C04_5 
REMARK    3  A    between atoms: C04_5  and  C05_6 
REMARK    4  A    between atoms: C09_10  and  C0A_11 
REMARK    5  A    between atoms: C0A_11  and  C0B_12 
REMARK       I    between atoms: C0B_12  and  N0C_13 
REMARK    6  A    between atoms: C0E_15  and  C0F_16 
REMARK    7  A    between atoms: C0F_16  and  C0G_17 
REMARK    8  A    between atoms: C0N_23  and  C0O_24 
REMARK    9  A    between atoms: C0O_24  and  N0P_25 
ROOT
ATOM      1  C02 MOL     1       1.314   6.799  -4.303  1.00  0.00    -0.044 C 
ATOM      2  C03 MOL     1       2.048   7.102  -5.458  1.00  0.00     0.129 C 
ATOM      3  C08 MOL     1       2.098   8.438  -6.025  1.00  0.00    -0.316 C 
ATOM      4  C09 MOL     1       1.511   9.470  -5.316  1.00  0.00     0.109 C 
ATOM      5  C0E MOL     1       0.725   9.237  -4.225  1.00  0.00    -0.064 C 
ATOM      6  C0N MOL     1       0.708   7.939  -3.660  1.00  0.00    -0.120 C 
ENDROOT
BRANCH   5   7
ATOM      7  C0F MOL     1       0.016  10.409  -3.565  1.00  0.00     0.047 C 
BRANCH   7   8
ATOM      8  C0G MOL     1       0.661  11.108  -2.399  1.00  0.00     0.171 C 
ATOM      9  C0M MOL     1      -0.111  11.717  -1.388  1.00  0.00    -0.195 C 
ATOM     10  C0K MOL     1       0.508  12.389  -0.302  1.00  0.00    -0.062 C 
ATOM     11  C0J MOL     1       1.884  12.633  -0.276  1.00  0.00    -0.135 C 
ATOM     12  C0I MOL     1       2.634  12.034  -1.332  1.00  0.00    -0.071 C 
ATOM     13  C0H MOL     1       2.006  11.275  -2.297  1.00  0.00    -0.152 C 
ENDBRANCH   7   8
ENDBRANCH   5   7
BRANCH   6  14
ATOM     14  C0O MOL     1      -0.112   7.635  -2.364  1.00  0.00     0.092 C 
BRANCH  14  15
ATOM     15  N0P MOL     1      -1.561   7.304  -2.548  1.00  0.00    -0.153 N 
ATOM     16  H0Q MOL     1      -1.986   7.932  -3.211  1.00  0.00     0.257 HD
ATOM     17  H0R MOL     1      -1.612   6.402  -3.011  1.00  0.00     0.244 HD
ATOM     18  H0S MOL     1      -2.119   7.337  -1.706  1.00  0.00     0.246 HD
ENDBRANCH  14  15
ENDBRANCH   6  14
BRANCH   4  19
ATOM     19  C0A MOL     1       1.849  10.898  -5.802  1.00  0.00    -0.219 C 
BRANCH  19  20
ATOM     20  C0B MOL     1       2.031  11.047  -7.348  1.00  0.00     0.819 C 
ATOM     21  N0C MOL     1       0.962  10.971  -8.081  1.00  0.00    -0.993 N 
ATOM     22  H13 MOL     1       0.084  10.867  -7.579  1.00  0.00     0.395 HD
ATOM     23  H14 MOL     1       1.029  10.976  -9.082  1.00  0.00     0.440 HD
ATOM     24  O0D MOL     1       3.121  11.310  -7.823  1.00  0.00    -0.614 OA
ENDBRANCH  19  20
ENDBRANCH   4  19
BRANCH   1  25
ATOM     25  C01 MOL     1       1.208   5.375  -3.715  1.00  0.00    -0.066 C 
ATOM     26  C00 MOL     1       0.059   4.512  -4.427  1.00  0.00    -0.126 C 
ENDBRANCH   1  25
BRANCH   2  27
ATOM     27  C04 MOL     1       2.772   6.088  -6.315  1.00  0.00    -0.266 C 
BRANCH  27  28
ATOM     28  C05 MOL     1       2.145   5.814  -7.659  1.00  0.00     0.870 C 
ATOM     29  O06 MOL     1       2.761   5.776  -8.706  1.00  0.00    -0.820 OA
ATOM     30  O07 MOL     1       0.901   5.528  -7.684  1.00  0.00    -0.676 OA
ENDBRANCH  27  28
ENDBRANCH   2  27
TORSDOF 9
ENDMDL
MODEL 8
REMARK VINA RESULT:      -5.4     15.636     18.797
REMARK  9 active torsions:
REMARK  status: ('A' for Active; 'I' for Inactive)
REMARK    1  A    between atoms: C01_2  and  C02_3 
REMARK    2  A    between atoms: C03_4  and  C04_5 
REMARK    3  A    between atoms: C04_5  and  C05_6 
REMARK    4  A    between atoms: C09_10  and  C0A_11 
REMARK    5  A    between atoms: C0A_11  and  C0B_12 
REMARK       I    between atoms: C0B_12  and  N0C_13 
REMARK    6  A    between atoms: C0E_15  and  C0F_16 
REMARK    7  A    between atoms: C0F_16  and  C0G_17 
REMARK    8  A    between atoms: C0N_23  and  C0O_24 
REMARK    9  A    between atoms: C0O_24  and  N0P_25 
ROOT
ATOM      1  C02 MOL     1      -4.255   7.450 -20.481  1.00  0.00    -0.044 C 
ATOM      2  C03 MOL     1      -3.774   6.296 -19.848  1.00  0.00     0.129 C 
ATOM      3  C08 MOL     1      -2.357   6.046 -19.649  1.00  0.00    -0.316 C 
ATOM      4  C09 MOL     1      -1.466   7.051 -19.973  1.00  0.00     0.109 C 
ATOM      5  C0E MOL     1      -1.857   8.168 -20.654  1.00  0.00    -0.064 C 
ATOM      6  C0N MOL     1      -3.240   8.420 -20.816  1.00  0.00    -0.120 C 
ENDROOT
BRANCH   5   7
ATOM      7  C0F MOL     1      -0.802   9.177 -21.081  1.00  0.00     0.047 C 
BRANCH   7   8
ATOM      8  C0G MOL     1      -0.077   8.990 -22.386  1.00  0.00     0.171 C 
ATOM      9  C0M MOL     1       1.106   9.700 -22.678  1.00  0.00    -0.195 C 
ATOM     10  C0K MOL     1       1.772   9.529 -23.919  1.00  0.00    -0.062 C 
ATOM     11  C0J MOL     1       1.201   8.799 -24.966  1.00  0.00    -0.135 C 
ATOM     12  C0I MOL     1      -0.015   8.121 -24.651  1.00  0.00    -0.071 C 
ATOM     13  C0H MOL     1      -0.560   8.208 -23.387  1.00  0.00    -0.152 C 
ENDBRANCH   7   8
ENDBRANCH   5   7
BRANCH   6  14
ATOM     14  C0O MOL     1      -3.746   9.723 -21.517  1.00  0.00     0.092 C 
BRANCH  14  15
ATOM     15  N0P MOL     1      -3.849   9.684 -23.011  1.00  0.00    -0.153 N 
ATOM     16  H0Q MOL     1      -3.767   8.738 -23.347  1.00  0.00     0.257 HD
ATOM     17  H0R MOL     1      -4.800   9.941 -23.258  1.00  0.00     0.244 HD
ATOM     18  H0S MOL     1      -3.161  10.236 -23.503  1.00  0.00     0.246 HD
ENDBRANCH  14  15
ENDBRANCH   6  14
BRANCH   4  19
ATOM     19  C0A MOL     1      -0.018   6.856 -19.467  1.00  0.00    -0.219 C 
BRANCH  19  20
ATOM     20  C0B MOL     1       0.209   7.201 -17.959  1.00  0.00     0.819 C 
ATOM     21  N0C MOL     1       0.230   8.457 -17.635  1.00  0.00    -0.993 N 
ATOM     22  H13 MOL     1       0.047   9.116 -18.389  1.00  0.00     0.395 HD
ATOM     23  H14 MOL     1       0.455   8.739 -16.698  1.00  0.00     0.440 HD
ATOM     24  O0D MOL     1       0.275   6.317 -17.123  1.00  0.00    -0.614 OA
ENDBRANCH  19  20
ENDBRANCH   4  19
BRANCH   1  25
ATOM     25  C01 MOL     1      -5.754   7.710 -20.748  1.00  0.00    -0.066 C 
ATOM     26  C00 MOL     1      -6.248   7.039 -22.119  1.00  0.00    -0.126 C 
ENDBRANCH   1  25
BRANCH   2  27
ATOM     27  C04 MOL     1      -4.631   5.133 -19.403  1.00  0.00    -0.266 C 
BRANCH  27  28
ATOM     28  C05 MOL     1      -5.117   5.198 -17.977  1.00  0.00     0.870 C 
ATOM     29  O06 MOL     1      -5.898   6.030 -17.557  1.00  0.00    -0.820 OA
ATOM     30  O07 MOL     1      -4.742   4.273 -17.181  1.00  0.00    -0.676 OA
ENDBRANCH  27  28
ENDBRANCH   2  27
TORSDOF 9
ENDMDL
MODEL 9
REMARK VINA RESULT:      -5.4     14.309     17.607
REMARK  9 active torsions:
REMARK  status: ('A' for Active; 'I' for Inactive)
REMARK    1  A    between atoms: C01_2  and  C02_3 
REMARK    2  A    between atoms: C03_4  and  C04_5 
REMARK    3  A    between atoms: C04_5  and  C05_6 
REMARK    4  A    between atoms: C09_10  and  C0A_11 
REMARK    5  A    between atoms: C0A_11  and  C0B_12 
REMARK       I    between atoms: C0B_12  and  N0C_13 
REMARK    6  A    between atoms: C0E_15  and  C0F_16 
REMARK    7  A    between atoms: C0F_16  and  C0G_17 
REMARK    8  A    between atoms: C0N_23  and  C0O_24 
REMARK    9  A    between atoms: C0O_24  and  N0P_25 
ROOT
ATOM      1  C02 MOL     1      -2.570   5.732 -19.304  1.00  0.00    -0.044 C 
ATOM      2  C03 MOL     1      -3.274   6.429 -20.296  1.00  0.00     0.129 C 
ATOM      3  C08 MOL     1      -2.669   7.484 -21.089  1.00  0.00    -0.316 C 
ATOM      4  C09 MOL     1      -1.312   7.708 -20.950  1.00  0.00     0.109 C 
ATOM      5  C0E MOL     1      -0.583   7.118 -19.958  1.00  0.00    -0.064 C 
ATOM      6  C0N MOL     1      -1.169   6.068 -19.212  1.00  0.00    -0.120 C 
ENDROOT
BRANCH   5   7
ATOM      7  C0F MOL     1       0.879   7.501 -19.792  1.00  0.00     0.047 C 
BRANCH   7   8
ATOM      8  C0G MOL     1       1.305   8.318 -18.602  1.00  0.00     0.171 C 
ATOM      9  C0M MOL     1       2.499   8.036 -17.906  1.00  0.00    -0.195 C 
ATOM     10  C0K MOL     1       2.881   8.803 -16.774  1.00  0.00    -0.062 C 
ATOM     11  C0J MOL     1       2.020   9.739 -16.195  1.00  0.00    -0.135 C 
ATOM     12  C0I MOL     1       0.804   9.977 -16.904  1.00  0.00    -0.071 C 
ATOM     13  C0H MOL     1       0.531   9.303 -18.075  1.00  0.00    -0.152 C 
ENDBRANCH   7   8
ENDBRANCH   5   7
BRANCH   6  14
ATOM     14  C0O MOL     1      -0.354   5.303 -18.118  1.00  0.00     0.092 C 
BRANCH  14  15
ATOM     15  N0P MOL     1      -0.308   5.927 -16.757  1.00  0.00    -0.153 N 
ATOM     16  H0Q MOL     1      -0.018   6.889 -16.818  1.00  0.00     0.257 HD
ATOM     17  H0R MOL     1      -1.263   5.988 -16.417  1.00  0.00     0.244 HD
ATOM     18  H0S MOL     1       0.306   5.470 -16.097  1.00  0.00     0.246 HD
ENDBRANCH  14  15
ENDBRANCH   6  14
BRANCH   4  19
ATOM     19  C0A MOL     1      -0.668   8.620 -22.019  1.00  0.00    -0.219 C 
BRANCH  19  20
ATOM     20  C0B MOL     1      -0.866  10.154 -21.789  1.00  0.00     0.819 C 
ATOM     21  N0C MOL     1       0.131  10.810 -21.279  1.00  0.00    -0.993 N 
ATOM     22  H13 MOL     1       0.980  10.275 -21.114  1.00  0.00     0.395 HD
ATOM     23  H14 MOL     1       0.032  11.778 -21.032  1.00  0.00     0.440 HD
ATOM     24  O0D MOL     1      -1.883  10.711 -22.159  1.00  0.00    -0.614 OA
ENDBRANCH  19  20
ENDBRANCH   4  19
BRANCH   1  25
ATOM     25  C01 MOL     1      -3.210   4.643 -18.415  1.00  0.00    -0.066 C 
ATOM     26  C00 MOL     1      -4.704   5.026 -17.974  1.00  0.00    -0.126 C 
ENDBRANCH   1  25
BRANCH   2  27
ATOM     27  C04 MOL     1      -4.747   6.263 -20.589  1.00  0.00    -0.266 C 
BRANCH  27  28
ATOM     28  C05 MOL     1      -5.576   7.516 -20.457  1.00  0.00     0.870 C 
ATOM     29  O06 MOL     1      -5.666   8.173 -19.438  1.00  0.00    -0.820 OA
ATOM     30  O07 MOL     1      -6.156   7.956 -21.507  1.00  0.00    -0.676 OA
ENDBRANCH  27  28
ENDBRANCH   2  27
TORSDOF 9
ENDMDL
MODEL 10
REMARK VINA RESULT:      -5.3     13.717     16.808
REMARK  9 active torsions:
REMARK  status: ('A' for Active; 'I' for Inactive)
REMARK    1  A    between atoms: C01_2  and  C02_3 
REMARK    2  A    between atoms: C03_4  and  C04_5 
REMARK    3  A    between atoms: C04_5  and  C05_6 
REMARK    4  A    between atoms: C09_10  and  C0A_11 
REMARK    5  A    between atoms: C0A_11  and  C0B_12 
REMARK       I    between atoms: C0B_12  and  N0C_13 
REMARK    6  A    between atoms: C0E_15  and  C0F_16 
REMARK    7  A    between atoms: C0F_16  and  C0G_17 
REMARK    8  A    between atoms: C0N_23  and  C0O_24 
REMARK    9  A    between atoms: C0O_24  and  N0P_25 
ROOT
ATOM      1  C02 MOL     1       0.506   7.901 -17.312  1.00  0.00    -0.044 C 
ATOM      2  C03 MOL     1       0.779   9.272 -17.409  1.00  0.00     0.129 C 
ATOM      3  C08 MOL     1       0.572  10.027 -18.632  1.00  0.00    -0.316 C 
ATOM      4  C09 MOL     1      -0.047   9.392 -19.693  1.00  0.00     0.109 C 
ATOM      5  C0E MOL     1      -0.275   8.047 -19.692  1.00  0.00    -0.064 C 
ATOM      6  C0N MOL     1      -0.103   7.325 -18.487  1.00  0.00    -0.120 C 
ENDROOT
BRANCH   5   7
ATOM      7  C0F MOL     1      -0.853   7.398 -20.940  1.00  0.00     0.047 C 
BRANCH   7   8
ATOM      8  C0G MOL     1      -2.345   7.321 -21.119  1.00  0.00     0.171 C 
ATOM      9  C0M MOL     1      -3.068   8.368 -21.725  1.00  0.00    -0.195 C 
ATOM     10  C0K MOL     1      -4.478   8.292 -21.872  1.00  0.00    -0.062 C 
ATOM     11  C0J MOL     1      -5.226   7.276 -21.271  1.00  0.00    -0.135 C 
ATOM     12  C0I MOL     1      -4.467   6.249 -20.633  1.00  0.00    -0.071 C 
ATOM     13  C0H MOL     1      -3.089   6.294 -20.628  1.00  0.00    -0.152 C 
ENDBRANCH   7   8
ENDBRANCH   5   7
BRANCH   6  14
ATOM     14  C0O MOL     1      -0.426   5.797 -18.409  1.00  0.00     0.092 C 
BRANCH  14  15
ATOM     15  N0P MOL     1      -1.741   5.420 -17.798  1.00  0.00    -0.153 N 
ATOM     16  H0Q MOL     1      -2.161   6.215 -17.345  1.00  0.00     0.257 HD
ATOM     17  H0R MOL     1      -2.382   5.214 -18.558  1.00  0.00     0.244 HD
ATOM     18  H0S MOL     1      -1.699   4.675 -17.117  1.00  0.00     0.246 HD
ENDBRANCH  14  15
ENDBRANCH   6  14
BRANCH   4  19
ATOM     19  C0A MOL     1      -0.512  10.310 -20.847  1.00  0.00    -0.219 C 
BRANCH  19  20
ATOM     20  C0B MOL     1       0.616  11.168 -21.509  1.00  0.00     0.819 C 
ATOM     21  N0C MOL     1       0.514  12.458 -21.409  1.00  0.00    -0.993 N 
ATOM     22  H13 MOL     1      -0.272  12.803 -20.864  1.00  0.00     0.395 HD
ATOM     23  H14 MOL     1       1.162  13.058 -21.885  1.00  0.00     0.440 HD
ATOM     24  O0D MOL     1       1.586  10.634 -22.015  1.00  0.00    -0.614 OA
ENDBRANCH  19  20
ENDBRANCH   4  19
BRANCH   1  25
ATOM     25  C01 MOL     1       0.767   7.072 -16.036  1.00  0.00    -0.066 C 
ATOM     26  C00 MOL     1       2.220   6.393 -16.045  1.00  0.00    -0.126 C 
ENDBRANCH   1  25
BRANCH   2  27
ATOM     27  C04 MOL     1       1.417  10.106 -16.321  1.00  0.00    -0.266 C 
BRANCH  27  28
ATOM     28  C05 MOL     1       2.923  10.060 -16.273  1.00  0.00     0.870 C 
ATOM     29  O06 MOL     1       3.651  10.546 -17.118  1.00  0.00    -0.820 OA
ATOM     30  O07 MOL     1       3.468   9.545 -15.238  1.00  0.00    -0.676 OA
ENDBRANCH  27  28
ENDBRANCH   2  27
TORSDOF 9
ENDMDL
MODEL 11
REMARK VINA RESULT:      -5.3      4.282      5.862
REMARK  9 active torsions:
REMARK  status: ('A' for Active; 'I' for Inactive)
REMARK    1  A    between atoms: C01_2  and  C02_3 
REMARK    2  A    between atoms: C03_4  and  C04_5 
REMARK    3  A    between atoms: C04_5  and  C05_6 
REMARK    4  A    between atoms: C09_10  and  C0A_11 
REMARK    5  A    between atoms: C0A_11  and  C0B_12 
REMARK       I    between atoms: C0B_12  and  N0C_13 
REMARK    6  A    between atoms: C0E_15  and  C0F_16 
REMARK    7  A    between atoms: C0F_16  and  C0G_17 
REMARK    8  A    between atoms: C0N_23  and  C0O_24 
REMARK    9  A    between atoms: C0O_24  and  N0P_25 
ROOT
ATOM      1  C02 MOL     1      -0.486   6.639  -3.377  1.00  0.00    -0.044 C 
ATOM      2  C03 MOL     1      -0.294   8.027  -3.356  1.00  0.00     0.129 C 
ATOM      3  C08 MOL     1       0.894   8.661  -3.901  1.00  0.00    -0.316 C 
ATOM      4  C09 MOL     1       1.797   7.871  -4.587  1.00  0.00     0.109 C 
ATOM      5  C0E MOL     1       1.708   6.509  -4.586  1.00  0.00    -0.064 C 
ATOM      6  C0N MOL     1       0.533   5.901  -4.083  1.00  0.00    -0.120 C 
ENDROOT
BRANCH   5   7
ATOM      7  C0F MOL     1       2.803   5.699  -5.263  1.00  0.00     0.047 C 
BRANCH   7   8
ATOM      8  C0G MOL     1       2.578   5.153  -6.647  1.00  0.00     0.171 C 
ATOM      9  C0M MOL     1       2.046   5.956  -7.678  1.00  0.00    -0.195 C 
ATOM     10  C0K MOL     1       1.822   5.425  -8.974  1.00  0.00    -0.062 C 
ATOM     11  C0J MOL     1       1.946   4.058  -9.241  1.00  0.00    -0.135 C 
ATOM     12  C0I MOL     1       2.454   3.266  -8.168  1.00  0.00    -0.071 C 
ATOM     13  C0H MOL     1       2.784   3.847  -6.962  1.00  0.00    -0.152 C 
ENDBRANCH   7   8
ENDBRANCH   5   7
BRANCH   6  14
ATOM     14  C0O MOL     1       0.344   4.350  -4.130  1.00  0.00     0.092 C 
BRANCH  14  15
ATOM     15  N0P MOL     1      -0.456   3.806  -5.273  1.00  0.00    -0.153 N 
ATOM     16  H0Q MOL     1      -0.297   4.349  -6.106  1.00  0.00     0.257 HD
ATOM     17  H0R MOL     1      -0.072   2.895  -5.508  1.00  0.00     0.244 HD
ATOM     18  H0S MOL     1      -1.454   3.775  -5.122  1.00  0.00     0.246 HD
ENDBRANCH  14  15
ENDBRANCH   6  14
BRANCH   4  19
ATOM     19  C0A MOL     1       2.874   8.628  -5.398  1.00  0.00    -0.219 C 
BRANCH  19  20
ATOM     20  C0B MOL     1       2.333   9.786  -6.299  1.00  0.00     0.819 C 
ATOM     21  N0C MOL     1       1.586   9.453  -7.306  1.00  0.00    -0.993 N 
ATOM     22  H13 MOL     1       1.374   8.463  -7.396  1.00  0.00     0.395 HD
ATOM     23  H14 MOL     1       1.280  10.145  -7.965  1.00  0.00     0.440 HD
ATOM     24  O0D MOL     1       2.540  10.950  -6.006  1.00  0.00    -0.614 OA
ENDBRANCH  19  20
ENDBRANCH   4  19
BRANCH   1  25
ATOM     25  C01 MOL     1      -1.718   5.944  -2.756  1.00  0.00    -0.066 C 
ATOM     26  C00 MOL     1      -2.978   5.951  -3.749  1.00  0.00    -0.126 C 
ENDBRANCH   1  25
BRANCH   2  27
ATOM     27  C04 MOL     1      -1.214   9.018  -2.679  1.00  0.00    -0.266 C 
BRANCH  27  28
ATOM     28  C05 MOL     1      -1.980   9.925  -3.609  1.00  0.00     0.870 C 
ATOM     29  O06 MOL     1      -1.671  11.075  -3.854  1.00  0.00    -0.820 OA
ATOM     30  O07 MOL     1      -2.973   9.425  -4.239  1.00  0.00    -0.676 OA
ENDBRANCH  27  28
ENDBRANCH   2  27
TORSDOF 9
ENDMDL
MODEL 12
REMARK VINA RESULT:      -5.3      2.453      3.893
REMARK  9 active torsions:
REMARK  status: ('A' for Active; 'I' for Inactive)
REMARK    1  A    between atoms: C01_2  and  C02_3 
REMARK    2  A    between atoms: C03_4  and  C04_5 
REMARK    3  A    between atoms: C04_5  and  C05_6 
REMARK    4  A    between atoms: C09_10  and  C0A_11 
REMARK    5  A    between atoms: C0A_11  and  C0B_12 
REMARK       I    between atoms: C0B_12  and  N0C_13 
REMARK    6  A    between atoms: C0E_15  and  C0F_16 
REMARK    7  A    between atoms: C0F_16  and  C0G_17 
REMARK    8  A    between atoms: C0N_23  and  C0O_24 
REMARK    9  A    between atoms: C0O_24  and  N0P_25 
ROOT
ATOM      1  C02 MOL     1       1.489  10.222  -2.673  1.00  0.00    -0.044 C 
ATOM      2  C03 MOL     1       0.397  10.712  -3.402  1.00  0.00     0.129 C 
ATOM      3  C08 MOL     1       0.441  10.908  -4.841  1.00  0.00    -0.316 C 
ATOM      4  C09 MOL     1       1.556  10.461  -5.525  1.00  0.00     0.109 C 
ATOM      5  C0E MOL     1       2.679  10.040  -4.875  1.00  0.00    -0.064 C 
ATOM      6  C0N MOL     1       2.617   9.820  -3.478  1.00  0.00    -0.120 C 
ENDROOT
BRANCH   5   7
ATOM      7  C0F MOL     1       3.909   9.674  -5.691  1.00  0.00     0.047 C 
BRANCH   7   8
ATOM      8  C0G MOL     1       4.807  10.762  -6.214  1.00  0.00     0.171 C 
ATOM      9  C0M MOL     1       5.218  10.791  -7.563  1.00  0.00    -0.195 C 
ATOM     10  C0K MOL     1       6.079  11.812  -8.041  1.00  0.00    -0.062 C 
ATOM     11  C0J MOL     1       6.697  12.719  -7.175  1.00  0.00    -0.135 C 
ATOM     12  C0I MOL     1       6.287  12.641  -5.810  1.00  0.00    -0.071 C 
ATOM     13  C0H MOL     1       5.345  11.717  -5.410  1.00  0.00    -0.152 C 
ENDBRANCH   7   8
ENDBRANCH   5   7
BRANCH   6  14
ATOM     14  C0O MOL     1       3.850   9.262  -2.694  1.00  0.00     0.092 C 
BRANCH  14  15
ATOM     15  N0P MOL     1       4.836  10.269  -2.187  1.00  0.00    -0.153 N 
ATOM     16  H0Q MOL     1       4.544  10.631  -1.294  1.00  0.00     0.257 HD
ATOM     17  H0R MOL     1       5.696   9.774  -1.973  1.00  0.00     0.244 HD
ATOM     18  H0S MOL     1       4.990  11.062  -2.795  1.00  0.00     0.246 HD
ENDBRANCH  14  15
ENDBRANCH   6  14
BRANCH   4  19
ATOM     19  C0A MOL     1       1.426  10.417  -7.065  1.00  0.00    -0.219 C 
BRANCH  19  20
ATOM     20  C0B MOL     1       1.385  11.813  -7.768  1.00  0.00     0.819 C 
ATOM     21  N0C MOL     1       0.389  12.045  -8.567  1.00  0.00    -0.993 N 
ATOM     22  H13 MOL     1      -0.312  11.310  -8.631  1.00  0.00     0.395 HD
ATOM     23  H14 MOL     1       0.355  12.889  -9.108  1.00  0.00     0.440 HD
ATOM     24  O0D MOL     1       2.211  12.667  -7.501  1.00  0.00    -0.614 OA
ENDBRANCH  19  20
ENDBRANCH   4  19
BRANCH   1  25
ATOM     25  C01 MOL     1       1.478  10.055  -1.138  1.00  0.00    -0.066 C 
ATOM     26  C00 MOL     1       1.849  11.420  -0.381  1.00  0.00    -0.126 C 
ENDBRANCH   1  25
BRANCH   2  27
ATOM     27  C04 MOL     1      -0.899  11.201  -2.796  1.00  0.00    -0.266 C 
BRANCH  27  28
ATOM     28  C05 MOL     1      -1.990  10.165  -2.686  1.00  0.00     0.870 C 
ATOM     29  O06 MOL     1      -2.796   9.923  -3.563  1.00  0.00    -0.820 OA
ATOM     30  O07 MOL     1      -2.016   9.443  -1.632  1.00  0.00    -0.676 OA
ENDBRANCH  27  28
ENDBRANCH   2  27
TORSDOF 9
ENDMDL
MODEL 13
REMARK VINA RESULT:      -5.2      3.465      5.242
REMARK  9 active torsions:
REMARK  status: ('A' for Active; 'I' for Inactive)
REMARK    1  A    between atoms: C01_2  and  C02_3 
REMARK    2  A    between atoms: C03_4  and  C04_5 
REMARK    3  A    between atoms: C04_5  and  C05_6 
REMARK    4  A    between atoms: C09_10  and  C0A_11 
REMARK    5  A    between atoms: C0A_11  and  C0B_12 
REMARK       I    between atoms: C0B_12  and  N0C_13 
REMARK    6  A    between atoms: C0E_15  and  C0F_16 
REMARK    7  A    between atoms: C0F_16  and  C0G_17 
REMARK    8  A    between atoms: C0N_23  and  C0O_24 
REMARK    9  A    between atoms: C0O_24  and  N0P_25 
ROOT
ATOM      1  C02 MOL     1       1.498  10.892  -2.199  1.00  0.00    -0.044 C 
ATOM      2  C03 MOL     1       2.515  11.281  -3.081  1.00  0.00     0.129 C 
ATOM      3  C08 MOL     1       2.566  10.834  -4.463  1.00  0.00    -0.316 C 
ATOM      4  C09 MOL     1       1.495  10.112  -4.954  1.00  0.00     0.109 C 
ATOM      5  C0E MOL     1       0.509   9.641  -4.136  1.00  0.00    -0.064 C 
ATOM      6  C0N MOL     1       0.448  10.107  -2.801  1.00  0.00    -0.120 C 
ENDROOT
BRANCH   5   7
ATOM      7  C0F MOL     1      -0.576   8.754  -4.726  1.00  0.00     0.047 C 
BRANCH   7   8
ATOM      8  C0G MOL     1      -0.546   7.271  -4.474  1.00  0.00     0.171 C 
ATOM      9  C0M MOL     1      -1.550   6.633  -3.717  1.00  0.00    -0.195 C 
ATOM     10  C0K MOL     1      -1.502   5.236  -3.470  1.00  0.00    -0.062 C 
ATOM     11  C0J MOL     1      -0.383   4.469  -3.806  1.00  0.00    -0.135 C 
ATOM     12  C0I MOL     1       0.633   5.151  -4.540  1.00  0.00    -0.071 C 
ATOM     13  C0H MOL     1       0.485   6.480  -4.874  1.00  0.00    -0.152 C 
ENDBRANCH   7   8
ENDBRANCH   5   7
BRANCH   6  14
ATOM     14  C0O MOL     1      -0.706   9.662  -1.843  1.00  0.00     0.092 C 
BRANCH  14  15
ATOM     15  N0P MOL     1      -2.060  10.244  -2.108  1.00  0.00    -0.153 N 
ATOM     16  H0Q MOL     1      -2.169  11.120  -1.623  1.00  0.00     0.257 HD
ATOM     17  H0R MOL     1      -2.092  10.510  -3.088  1.00  0.00     0.244 HD
ATOM     18  H0S MOL     1      -2.839   9.657  -1.843  1.00  0.00     0.246 HD
ENDBRANCH  14  15
ENDBRANCH   6  14
BRANCH   4  19
ATOM     19  C0A MOL     1       1.457   9.924  -6.488  1.00  0.00    -0.219 C 
BRANCH  19  20
ATOM     20  C0B MOL     1       2.706   9.209  -7.099  1.00  0.00     0.819 C 
ATOM     21  N0C MOL     1       3.313   9.810  -8.076  1.00  0.00    -0.993 N 
ATOM     22  H13 MOL     1       2.951  10.725  -8.331  1.00  0.00     0.395 HD
ATOM     23  H14 MOL     1       4.068   9.360  -8.561  1.00  0.00     0.440 HD
ATOM     24  O0D MOL     1       3.131   8.176  -6.613  1.00  0.00    -0.614 OA
ENDBRANCH  19  20
ENDBRANCH   4  19
BRANCH   1  25
ATOM     25  C01 MOL     1       1.455  11.315  -0.714  1.00  0.00    -0.066 C 
ATOM     26  C00 MOL     1       0.726  12.730  -0.511  1.00  0.00    -0.126 C 
ENDBRANCH   1  25
BRANCH   2  27
ATOM     27  C04 MOL     1       3.726  12.101  -2.698  1.00  0.00    -0.266 C 
BRANCH  27  28
ATOM     28  C05 MOL     1       4.562  12.593  -3.853  1.00  0.00     0.870 C 
ATOM     29  O06 MOL     1       4.394  13.658  -4.415  1.00  0.00    -0.820 OA
ATOM     30  O07 MOL     1       5.559  11.878  -4.209  1.00  0.00    -0.676 OA
ENDBRANCH  27  28
ENDBRANCH   2  27
TORSDOF 9
ENDMDL
MODEL 14
REMARK VINA RESULT:      -5.1     17.475     18.958
REMARK  9 active torsions:
REMARK  status: ('A' for Active; 'I' for Inactive)
REMARK    1  A    between atoms: C01_2  and  C02_3 
REMARK    2  A    between atoms: C03_4  and  C04_5 
REMARK    3  A    between atoms: C04_5  and  C05_6 
REMARK    4  A    between atoms: C09_10  and  C0A_11 
REMARK    5  A    between atoms: C0A_11  and  C0B_12 
REMARK       I    between atoms: C0B_12  and  N0C_13 
REMARK    6  A    between atoms: C0E_15  and  C0F_16 
REMARK    7  A    between atoms: C0F_16  and  C0G_17 
REMARK    8  A    between atoms: C0N_23  and  C0O_24 
REMARK    9  A    between atoms: C0O_24  and  N0P_25 
ROOT
ATOM      1  C02 MOL     1      -3.917   6.444 -19.778  1.00  0.00    -0.044 C 
ATOM      2  C03 MOL     1      -4.522   7.572 -20.349  1.00  0.00     0.129 C 
ATOM      3  C08 MOL     1      -3.772   8.762 -20.711  1.00  0.00    -0.316 C 
ATOM      4  C09 MOL     1      -2.394   8.719 -20.614  1.00  0.00     0.109 C 
ATOM      5  C0E MOL     1      -1.748   7.684 -20.004  1.00  0.00    -0.064 C 
ATOM      6  C0N MOL     1      -2.479   6.515 -19.684  1.00  0.00    -0.120 C 
ENDROOT
BRANCH   5   7
ATOM      7  C0F MOL     1      -0.239   7.759 -19.828  1.00  0.00     0.047 C 
BRANCH   7   8
ATOM      8  C0G MOL     1       0.648   6.807 -20.584  1.00  0.00     0.171 C 
ATOM      9  C0M MOL     1       0.424   6.517 -21.946  1.00  0.00    -0.195 C 
ATOM     10  C0K MOL     1       1.257   5.603 -22.643  1.00  0.00    -0.062 C 
ATOM     11  C0J MOL     1       2.209   4.823 -21.982  1.00  0.00    -0.135 C 
ATOM     12  C0I MOL     1       2.388   5.115 -20.596  1.00  0.00    -0.071 C 
ATOM     13  C0H MOL     1       1.647   6.106 -19.986  1.00  0.00    -0.152 C 
ENDBRANCH   7   8
ENDBRANCH   5   7
BRANCH   6  14
ATOM     14  C0O MOL     1      -1.774   5.268 -19.057  1.00  0.00     0.092 C 
BRANCH  14  15
ATOM     15  N0P MOL     1      -1.257   5.422 -17.660  1.00  0.00    -0.153 N 
ATOM     16  H0Q MOL     1      -0.274   5.205 -17.621  1.00  0.00     0.257 HD
ATOM     17  H0R MOL     1      -1.292   6.410 -17.428  1.00  0.00     0.244 HD
ATOM     18  H0S MOL     1      -1.717   4.848 -16.967  1.00  0.00     0.246 HD
ENDBRANCH  14  15
ENDBRANCH   6  14
BRANCH   4  19
ATOM     19  C0A MOL     1      -1.635   9.886 -21.288  1.00  0.00    -0.219 C 
BRANCH  19  20
ATOM     20  C0B MOL     1      -2.297  10.443 -22.590  1.00  0.00     0.819 C 
ATOM     21  N0C MOL     1      -2.233   9.700 -23.652  1.00  0.00    -0.993 N 
ATOM     22  H13 MOL     1      -1.795   8.790 -23.534  1.00  0.00     0.395 HD
ATOM     23  H14 MOL     1      -2.566  10.042 -24.535  1.00  0.00     0.440 HD
ATOM     24  O0D MOL     1      -2.919  11.490 -22.571  1.00  0.00    -0.614 OA
ENDBRANCH  19  20
ENDBRANCH   4  19
BRANCH   1  25
ATOM     25  C01 MOL     1      -4.705   5.190 -19.340  1.00  0.00    -0.066 C 
ATOM     26  C00 MOL     1      -5.197   5.288 -17.816  1.00  0.00    -0.126 C 
ENDBRANCH   1  25
BRANCH   2  27
ATOM     27  C04 MOL     1      -6.010   7.747 -20.554  1.00  0.00    -0.266 C 
BRANCH  27  28
ATOM     28  C05 MOL     1      -6.493   7.548 -21.968  1.00  0.00     0.870 C 
ATOM     29  O06 MOL     1      -7.637   7.265 -22.268  1.00  0.00    -0.820 OA
ATOM     30  O07 MOL     1      -5.663   7.769 -22.914  1.00  0.00    -0.676 OA
ENDBRANCH  27  28
ENDBRANCH   2  27
TORSDOF 9
ENDMDL
MODEL 15
REMARK VINA RESULT:      -5.1      8.651     12.467
REMARK  9 active torsions:
REMARK  status: ('A' for Active; 'I' for Inactive)
REMARK    1  A    between atoms: C01_2  and  C02_3 
REMARK    2  A    between atoms: C03_4  and  C04_5 
REMARK    3  A    between atoms: C04_5  and  C05_6 
REMARK    4  A    between atoms: C09_10  and  C0A_11 
REMARK    5  A    between atoms: C0A_11  and  C0B_12 
REMARK       I    between atoms: C0B_12  and  N0C_13 
REMARK    6  A    between atoms: C0E_15  and  C0F_16 
REMARK    7  A    between atoms: C0F_16  and  C0G_17 
REMARK    8  A    between atoms: C0N_23  and  C0O_24 
REMARK    9  A    between atoms: C0O_24  and  N0P_25 
ROOT
ATOM      1  C02 MOL     1       2.882   6.149 -15.172  1.00  0.00    -0.044 C 
ATOM      2  C03 MOL     1       3.501   7.406 -15.193  1.00  0.00     0.129 C 
ATOM      3  C08 MOL     1       4.266   7.920 -14.070  1.00  0.00    -0.316 C 
ATOM      4  C09 MOL     1       4.503   7.076 -13.002  1.00  0.00     0.109 C 
ATOM      5  C0E MOL     1       3.876   5.869 -12.885  1.00  0.00    -0.064 C 
ATOM      6  C0N MOL     1       3.160   5.362 -13.996  1.00  0.00    -0.120 C 
ENDROOT
BRANCH   5   7
ATOM      7  C0F MOL     1       4.093   5.045 -11.626  1.00  0.00     0.047 C 
BRANCH   7   8
ATOM      8  C0G MOL     1       3.164   5.213 -10.455  1.00  0.00     0.171 C 
ATOM      9  C0M MOL     1       3.174   6.384  -9.670  1.00  0.00    -0.195 C 
ATOM     10  C0K MOL     1       2.304   6.524  -8.557  1.00  0.00    -0.062 C 
ATOM     11  C0J MOL     1       1.538   5.455  -8.084  1.00  0.00    -0.135 C 
ATOM     12  C0I MOL     1       1.576   4.271  -8.880  1.00  0.00    -0.071 C 
ATOM     13  C0H MOL     1       2.335   4.223 -10.031  1.00  0.00    -0.152 C 
ENDBRANCH   7   8
ENDBRANCH   5   7
BRANCH   6  14
ATOM     14  C0O MOL     1       2.489   3.950 -13.945  1.00  0.00     0.092 C 
BRANCH  14  15
ATOM     15  N0P MOL     1       1.092   3.890 -13.408  1.00  0.00    -0.153 N 
ATOM     16  H0Q MOL     1       0.850   4.755 -12.953  1.00  0.00     0.257 HD
ATOM     17  H0R MOL     1       0.461   3.855 -14.203  1.00  0.00     0.244 HD
ATOM     18  H0S MOL     1       0.919   3.146 -12.747  1.00  0.00     0.246 HD
ENDBRANCH  14  15
ENDBRANCH   6  14
BRANCH   4  19
ATOM     19  C0A MOL     1       5.561   7.560 -11.984  1.00  0.00    -0.219 C 
BRANCH  19  20
ATOM     20  C0B MOL     1       5.450   9.065 -11.576  1.00  0.00     0.819 C 
ATOM     21  N0C MOL     1       4.604   9.364 -10.638  1.00  0.00    -0.993 N 
ATOM     22  H13 MOL     1       4.115   8.580 -10.212  1.00  0.00     0.395 HD
ATOM     23  H14 MOL     1       4.430  10.321 -10.394  1.00  0.00     0.440 HD
ATOM     24  O0D MOL     1       6.194   9.897 -12.063  1.00  0.00    -0.614 OA
ENDBRANCH  19  20
ENDBRANCH   4  19
BRANCH   1  25
ATOM     25  C01 MOL     1       2.023   5.607 -16.336  1.00  0.00    -0.066 C 
ATOM     26  C00 MOL     1       0.534   6.202 -16.314  1.00  0.00    -0.126 C 
ENDBRANCH   1  25
BRANCH   2  27
ATOM     27  C04 MOL     1       3.366   8.419 -16.307  1.00  0.00    -0.266 C 
BRANCH  27  28
ATOM     28  C05 MOL     1       2.681   9.708 -15.927  1.00  0.00     0.870 C 
ATOM     29  O06 MOL     1       3.215  10.800 -15.947  1.00  0.00    -0.820 OA
ATOM     30  O07 MOL     1       1.436   9.654 -15.641  1.00  0.00    -0.676 OA
ENDBRANCH  27  28
ENDBRANCH   2  27
TORSDOF 9
ENDMDL
MODEL 16
REMARK VINA RESULT:      -5.1     16.022     18.364
REMARK  9 active torsions:
REMARK  status: ('A' for Active; 'I' for Inactive)
REMARK    1  A    between atoms: C01_2  and  C02_3 
REMARK    2  A    between atoms: C03_4  and  C04_5 
REMARK    3  A    between atoms: C04_5  and  C05_6 
REMARK    4  A    between atoms: C09_10  and  C0A_11 
REMARK    5  A    between atoms: C0A_11  and  C0B_12 
REMARK       I    between atoms: C0B_12  and  N0C_13 
REMARK    6  A    between atoms: C0E_15  and  C0F_16 
REMARK    7  A    between atoms: C0F_16  and  C0G_17 
REMARK    8  A    between atoms: C0N_23  and  C0O_24 
REMARK    9  A    between atoms: C0O_24  and  N0P_25 
ROOT
ATOM      1  C02 MOL     1      -3.899   6.893 -20.288  1.00  0.00    -0.044 C 
ATOM      2  C03 MOL     1      -4.804   7.962 -20.338  1.00  0.00     0.129 C 
ATOM      3  C08 MOL     1      -4.419   9.292 -20.776  1.00  0.00    -0.316 C 
ATOM      4  C09 MOL     1      -3.148   9.467 -21.292  1.00  0.00     0.109 C 
ATOM      5  C0E MOL     1      -2.198   8.491 -21.210  1.00  0.00    -0.064 C 
ATOM      6  C0N MOL     1      -2.588   7.189 -20.813  1.00  0.00    -0.120 C 
ENDROOT
BRANCH   5   7
ATOM      7  C0F MOL     1      -0.788   8.793 -21.692  1.00  0.00     0.047 C 
BRANCH   7   8
ATOM      8  C0G MOL     1       0.278   9.162 -20.696  1.00  0.00     0.171 C 
ATOM      9  C0M MOL     1       1.622   8.779 -20.882  1.00  0.00    -0.195 C 
ATOM     10  C0K MOL     1       2.616   9.117 -19.926  1.00  0.00    -0.062 C 
ATOM     11  C0J MOL     1       2.286   9.677 -18.689  1.00  0.00    -0.135 C 
ATOM     12  C0I MOL     1       0.911  10.021 -18.517  1.00  0.00    -0.071 C 
ATOM     13  C0H MOL     1      -0.001   9.795 -19.526  1.00  0.00    -0.152 C 
ENDBRANCH   7   8
ENDBRANCH   5   7
BRANCH   6  14
ATOM     14  C0O MOL     1      -1.557   6.014 -20.778  1.00  0.00     0.092 C 
BRANCH  14  15
ATOM     15  N0P MOL     1      -0.649   5.953 -19.588  1.00  0.00    -0.153 N 
ATOM     16  H0Q MOL     1      -0.006   5.183 -19.673  1.00  0.00     0.257 HD
ATOM     17  H0R MOL     1      -0.047   6.770 -19.621  1.00  0.00     0.244 HD
ATOM     18  H0S MOL     1      -1.116   5.854 -18.697  1.00  0.00     0.246 HD
ENDBRANCH  14  15
ENDBRANCH   6  14
BRANCH   4  19
ATOM     19  C0A MOL     1      -2.894  10.810 -22.014  1.00  0.00    -0.219 C 
BRANCH  19  20
ATOM     20  C0B MOL     1      -3.483  10.908 -23.459  1.00  0.00     0.819 C 
ATOM     21  N0C MOL     1      -3.851  12.082 -23.871  1.00  0.00    -0.993 N 
ATOM     22  H13 MOL     1      -3.680  12.853 -23.230  1.00  0.00     0.395 HD
ATOM     23  H14 MOL     1      -4.312  12.191 -24.755  1.00  0.00     0.440 HD
ATOM     24  O0D MOL     1      -3.509   9.932 -24.187  1.00  0.00    -0.614 OA
ENDBRANCH  19  20
ENDBRANCH   4  19
BRANCH   1  25
ATOM     25  C01 MOL     1      -4.276   5.485 -19.777  1.00  0.00    -0.066 C 
ATOM     26  C00 MOL     1      -3.970   5.309 -18.212  1.00  0.00    -0.126 C 
ENDBRANCH   1  25
BRANCH   2  27
ATOM     27  C04 MOL     1      -6.233   7.910 -19.847  1.00  0.00    -0.266 C 
BRANCH  27  28
ATOM     28  C05 MOL     1      -6.451   8.417 -18.444  1.00  0.00     0.870 C 
ATOM     29  O06 MOL     1      -6.552   9.592 -18.148  1.00  0.00    -0.820 OA
ATOM     30  O07 MOL     1      -6.617   7.550 -17.520  1.00  0.00    -0.676 OA
ENDBRANCH  27  28
ENDBRANCH   2  27
TORSDOF 9
ENDMDL
MODEL 17
REMARK VINA RESULT:      -5.1     14.186     17.445
REMARK  9 active torsions:
REMARK  status: ('A' for Active; 'I' for Inactive)
REMARK    1  A    between atoms: C01_2  and  C02_3 
REMARK    2  A    between atoms: C03_4  and  C04_5 
REMARK    3  A    between atoms: C04_5  and  C05_6 
REMARK    4  A    between atoms: C09_10  and  C0A_11 
REMARK    5  A    between atoms: C0A_11  and  C0B_12 
REMARK       I    between atoms: C0B_12  and  N0C_13 
REMARK    6  A    between atoms: C0E_15  and  C0F_16 
REMARK    7  A    between atoms: C0F_16  and  C0G_17 
REMARK    8  A    between atoms: C0N_23  and  C0O_24 
REMARK    9  A    between atoms: C0O_24  and  N0P_25 
ROOT
ATOM      1  C02 MOL     1       0.729   9.713 -19.410  1.00  0.00    -0.044 C 
ATOM      2  C03 MOL     1       1.786   9.112 -18.714  1.00  0.00     0.129 C 
ATOM      3  C08 MOL     1       1.956   7.672 -18.640  1.00  0.00    -0.316 C 
ATOM      4  C09 MOL     1       1.121   6.877 -19.402  1.00  0.00     0.109 C 
ATOM      5  C0E MOL     1       0.031   7.388 -20.046  1.00  0.00    -0.064 C 
ATOM      6  C0N MOL     1      -0.109   8.793 -20.141  1.00  0.00    -0.120 C 
ENDROOT
BRANCH   5   7
ATOM      7  C0F MOL     1      -0.910   6.437 -20.769  1.00  0.00     0.047 C 
BRANCH   7   8
ATOM      8  C0G MOL     1      -2.181   5.992 -20.097  1.00  0.00     0.171 C 
ATOM      9  C0M MOL     1      -3.446   6.367 -20.595  1.00  0.00    -0.195 C 
ATOM     10  C0K MOL     1      -4.638   5.956 -19.942  1.00  0.00    -0.062 C 
ATOM     11  C0J MOL     1      -4.613   5.324 -18.696  1.00  0.00    -0.135 C 
ATOM     12  C0I MOL     1      -3.317   4.990 -18.201  1.00  0.00    -0.071 C 
ATOM     13  C0H MOL     1      -2.187   5.291 -18.933  1.00  0.00    -0.152 C 
ENDBRANCH   7   8
ENDBRANCH   5   7
BRANCH   6  14
ATOM     14  C0O MOL     1      -1.295   9.433 -20.934  1.00  0.00     0.092 C 
BRANCH  14  15
ATOM     15  N0P MOL     1      -1.059   9.707 -22.388  1.00  0.00    -0.153 N 
ATOM     16  H0Q MOL     1      -0.322  10.382 -22.506  1.00  0.00     0.257 HD
ATOM     17  H0R MOL     1      -0.675   8.862 -22.799  1.00  0.00     0.244 HD
ATOM     18  H0S MOL     1      -1.863  10.050 -22.895  1.00  0.00     0.246 HD
ENDBRANCH  14  15
ENDBRANCH   6  14
BRANCH   4  19
ATOM     19  C0A MOL     1       1.531   5.391 -19.524  1.00  0.00    -0.219 C 
BRANCH  19  20
ATOM     20  C0B MOL     1       2.546   5.075 -20.670  1.00  0.00     0.819 C 
ATOM     21  N0C MOL     1       3.236   3.981 -20.566  1.00  0.00    -0.993 N 
ATOM     22  H13 MOL     1       3.022   3.393 -19.763  1.00  0.00     0.395 HD
ATOM     23  H14 MOL     1       3.960   3.769 -21.227  1.00  0.00     0.440 HD
ATOM     24  O0D MOL     1       2.612   5.788 -21.655  1.00  0.00    -0.614 OA
ENDBRANCH  19  20
ENDBRANCH   4  19
BRANCH   1  25
ATOM     25  C01 MOL     1       0.503  11.240 -19.457  1.00  0.00    -0.066 C 
ATOM     26  C00 MOL     1       1.327  11.936 -20.644  1.00  0.00    -0.126 C 
ENDBRANCH   1  25
BRANCH   2  27
ATOM     27  C04 MOL     1       2.799   9.853 -17.871  1.00  0.00    -0.266 C 
BRANCH  27  28
ATOM     28  C05 MOL     1       2.361  10.165 -16.462  1.00  0.00     0.870 C 
ATOM     29  O06 MOL     1       1.350   9.729 -15.947  1.00  0.00    -0.820 OA
ATOM     30  O07 MOL     1       3.145  10.870 -15.741  1.00  0.00    -0.676 OA
ENDBRANCH  27  28
ENDBRANCH   2  27
TORSDOF 9
ENDMDL
MODEL 18
REMARK VINA RESULT:      -5.1      2.645      4.177
REMARK  9 active torsions:
REMARK  status: ('A' for Active; 'I' for Inactive)
REMARK    1  A    between atoms: C01_2  and  C02_3 
REMARK    2  A    between atoms: C03_4  and  C04_5 
REMARK    3  A    between atoms: C04_5  and  C05_6 
REMARK    4  A    between atoms: C09_10  and  C0A_11 
REMARK    5  A    between atoms: C0A_11  and  C0B_12 
REMARK       I    between atoms: C0B_12  and  N0C_13 
REMARK    6  A    between atoms: C0E_15  and  C0F_16 
REMARK    7  A    between atoms: C0F_16  and  C0G_17 
REMARK    8  A    between atoms: C0N_23  and  C0O_24 
REMARK    9  A    between atoms: C0O_24  and  N0P_25 
ROOT
ATOM      1  C02 MOL     1       1.439  10.973  -2.677  1.00  0.00    -0.044 C 
ATOM      2  C03 MOL     1       0.255  11.086  -3.420  1.00  0.00     0.129 C 
ATOM      3  C08 MOL     1       0.246  11.152  -4.871  1.00  0.00    -0.316 C 
ATOM      4  C09 MOL     1       1.440  10.956  -5.540  1.00  0.00     0.109 C 
ATOM      5  C0E MOL     1       2.635  10.910  -4.882  1.00  0.00    -0.064 C 
ATOM      6  C0N MOL     1       2.634  10.813  -3.470  1.00  0.00    -0.120 C 
ENDROOT
BRANCH   5   7
ATOM      7  C0F MOL     1       3.918  10.811  -5.691  1.00  0.00     0.047 C 
BRANCH   7   8
ATOM      8  C0G MOL     1       4.352   9.478  -6.239  1.00  0.00     0.171 C 
ATOM      9  C0M MOL     1       4.081   8.277  -5.553  1.00  0.00    -0.195 C 
ATOM     10  C0K MOL     1       4.511   7.027  -6.071  1.00  0.00    -0.062 C 
ATOM     11  C0J MOL     1       5.366   6.944  -7.174  1.00  0.00    -0.135 C 
ATOM     12  C0I MOL     1       5.651   8.181  -7.826  1.00  0.00    -0.071 C 
ATOM     13  C0H MOL     1       5.103   9.360  -7.366  1.00  0.00    -0.152 C 
ENDBRANCH   7   8
ENDBRANCH   5   7
BRANCH   6  14
ATOM     14  C0O MOL     1       3.970  10.678  -2.670  1.00  0.00     0.092 C 
BRANCH  14  15
ATOM     15  N0P MOL     1       4.710  11.948  -2.379  1.00  0.00    -0.153 N 
ATOM     16  H0Q MOL     1       5.007  11.971  -1.417  1.00  0.00     0.257 HD
ATOM     17  H0R MOL     1       5.583  11.917  -2.896  1.00  0.00     0.244 HD
ATOM     18  H0S MOL     1       4.190  12.796  -2.552  1.00  0.00     0.246 HD
ENDBRANCH  14  15
ENDBRANCH   6  14
BRANCH   4  19
ATOM     19  C0A MOL     1       1.327  10.736  -7.066  1.00  0.00    -0.219 C 
BRANCH  19  20
ATOM     20  C0B MOL     1       1.108  12.034  -7.909  1.00  0.00     0.819 C 
ATOM     21  N0C MOL     1       0.180  12.002  -8.816  1.00  0.00    -0.993 N 
ATOM     22  H13 MOL     1      -0.362  11.144  -8.869  1.00  0.00     0.395 HD
ATOM     23  H14 MOL     1       0.052  12.776  -9.442  1.00  0.00     0.440 HD
ATOM     24  O0D MOL     1       1.729  13.051  -7.656  1.00  0.00    -0.614 OA
ENDBRANCH  19  20
ENDBRANCH   4  19
BRANCH   1  25
ATOM     25  C01 MOL     1       1.472  10.953  -1.133  1.00  0.00    -0.066 C 
ATOM     26  C00 MOL     1       1.541  12.430  -0.512  1.00  0.00    -0.126 C 
ENDBRANCH   1  25
BRANCH   2  27
ATOM     27  C04 MOL     1      -1.124  11.266  -2.828  1.00  0.00    -0.266 C 
BRANCH  27  28
ATOM     28  C05 MOL     1      -1.919   9.997  -2.649  1.00  0.00     0.870 C 
ATOM     29  O06 MOL     1      -1.906   9.317  -1.642  1.00  0.00    -0.820 OA
ATOM     30  O07 MOL     1      -2.717   9.661  -3.589  1.00  0.00    -0.676 OA
ENDBRANCH  27  28
ENDBRANCH   2  27
TORSDOF 9
ENDMDL
MODEL 19
REMARK VINA RESULT:      -4.9      3.109      5.442
REMARK  9 active torsions:
REMARK  status: ('A' for Active; 'I' for Inactive)
REMARK    1  A    between atoms: C01_2  and  C02_3 
REMARK    2  A    between atoms: C03_4  and  C04_5 
REMARK    3  A    between atoms: C04_5  and  C05_6 
REMARK    4  A    between atoms: C09_10  and  C0A_11 
REMARK    5  A    between atoms: C0A_11  and  C0B_12 
REMARK       I    between atoms: C0B_12  and  N0C_13 
REMARK    6  A    between atoms: C0E_15  and  C0F_16 
REMARK    7  A    between atoms: C0F_16  and  C0G_17 
REMARK    8  A    between atoms: C0N_23  and  C0O_24 
REMARK    9  A    between atoms: C0O_24  and  N0P_25 
ROOT
ATOM      1  C02 MOL     1       1.050  10.675  -0.778  1.00  0.00    -0.044 C 
ATOM      2  C03 MOL     1       2.420  10.404  -0.658  1.00  0.00     0.129 C 
ATOM      3  C08 MOL     1       3.129   9.534  -1.580  1.00  0.00    -0.316 C 
ATOM      4  C09 MOL     1       2.451   9.071  -2.692  1.00  0.00     0.109 C 
ATOM      5  C0E MOL     1       1.104   9.238  -2.834  1.00  0.00    -0.064 C 
ATOM      6  C0N MOL     1       0.427  10.113  -1.952  1.00  0.00    -0.120 C 
ENDROOT
BRANCH   5   7
ATOM      7  C0F MOL     1       0.405   8.600  -4.025  1.00  0.00     0.047 C 
BRANCH   7   8
ATOM      8  C0G MOL     1      -0.045   7.167  -3.946  1.00  0.00     0.171 C 
ATOM      9  C0M MOL     1      -1.186   6.794  -3.206  1.00  0.00    -0.195 C 
ATOM     10  C0K MOL     1      -1.592   5.437  -3.124  1.00  0.00    -0.062 C 
ATOM     11  C0J MOL     1      -0.792   4.400  -3.613  1.00  0.00    -0.135 C 
ATOM     12  C0I MOL     1       0.375   4.807  -4.326  1.00  0.00    -0.071 C 
ATOM     13  C0H MOL     1       0.662   6.145  -4.497  1.00  0.00    -0.152 C 
ENDBRANCH   7   8
ENDBRANCH   5   7
BRANCH   6  14
ATOM     14  C0O MOL     1      -1.101  10.403  -2.118  1.00  0.00     0.092 C 
BRANCH  14  15
ATOM     15  N0P MOL     1      -1.473  11.564  -2.988  1.00  0.00    -0.153 N 
ATOM     16  H0Q MOL     1      -0.698  12.201  -3.079  1.00  0.00     0.257 HD
ATOM     17  H0R MOL     1      -1.601  11.210  -3.931  1.00  0.00     0.244 HD
ATOM     18  H0S MOL     1      -2.266  12.102  -2.668  1.00  0.00     0.246 HD
ENDBRANCH  14  15
ENDBRANCH   6  14
BRANCH   4  19
ATOM     19  C0A MOL     1       3.322   8.408  -3.783  1.00  0.00    -0.219 C 
BRANCH  19  20
ATOM     20  C0B MOL     1       4.176   7.190  -3.302  1.00  0.00     0.819 C 
ATOM     21  N0C MOL     1       5.466   7.294  -3.400  1.00  0.00    -0.993 N 
ATOM     22  H13 MOL     1       5.817   8.186  -3.741  1.00  0.00     0.395 HD
ATOM     23  H14 MOL     1       6.059   6.514  -3.185  1.00  0.00     0.440 HD
ATOM     24  O0D MOL     1       3.645   6.227  -2.778  1.00  0.00    -0.614 OA
ENDBRANCH  19  20
ENDBRANCH   4  19
BRANCH   1  25
ATOM     25  C01 MOL     1       0.269  11.556   0.221  1.00  0.00    -0.066 C 
ATOM     26  C00 MOL     1       0.440  13.120  -0.092  1.00  0.00    -0.126 C 
ENDBRANCH   1  25
BRANCH   2  27
ATOM     27  C04 MOL     1       3.299  10.873   0.479  1.00  0.00    -0.266 C 
BRANCH  27  28
ATOM     28  C05 MOL     1       3.498   9.876   1.593  1.00  0.00     0.870 C 
ATOM     29  O06 MOL     1       4.557   9.333   1.845  1.00  0.00    -0.820 OA
ATOM     30  O07 MOL     1       2.508   9.647   2.367  1.00  0.00    -0.676 OA
ENDBRANCH  27  28
ENDBRANCH   2  27
TORSDOF 9
ENDMDL
MODEL 20
REMARK VINA RESULT:      -4.9      2.582      5.714
REMARK  9 active torsions:
REMARK  status: ('A' for Active; 'I' for Inactive)
REMARK    1  A    between atoms: C01_2  and  C02_3 
REMARK    2  A    between atoms: C03_4  and  C04_5 
REMARK    3  A    between atoms: C04_5  and  C05_6 
REMARK    4  A    between atoms: C09_10  and  C0A_11 
REMARK    5  A    between atoms: C0A_11  and  C0B_12 
REMARK       I    between atoms: C0B_12  and  N0C_13 
REMARK    6  A    between atoms: C0E_15  and  C0F_16 
REMARK    7  A    between atoms: C0F_16  and  C0G_17 
REMARK    8  A    between atoms: C0N_23  and  C0O_24 
REMARK    9  A    between atoms: C0O_24  and  N0P_25 
ROOT
ATOM      1  C02 MOL     1       3.922  10.449  -2.344  1.00  0.00    -0.044 C 
ATOM      2  C03 MOL     1       3.375  10.862  -3.567  1.00  0.00     0.129 C 
ATOM      3  C08 MOL     1       1.943  10.972  -3.786  1.00  0.00    -0.316 C 
ATOM      4  C09 MOL     1       1.103  10.795  -2.703  1.00  0.00     0.109 C 
ATOM      5  C0E MOL     1       1.561  10.325  -1.506  1.00  0.00    -0.064 C 
ATOM      6  C0N MOL     1       2.957  10.252  -1.289  1.00  0.00    -0.120 C 
ENDROOT
BRANCH   5   7
ATOM      7  C0F MOL     1       0.561  10.043  -0.395  1.00  0.00     0.047 C 
BRANCH   7   8
ATOM      8  C0G MOL     1       0.294  11.090   0.652  1.00  0.00     0.171 C 
ATOM      9  C0M MOL     1       0.427  12.465   0.368  1.00  0.00    -0.195 C 
ATOM     10  C0K MOL     1       0.190  13.443   1.368  1.00  0.00    -0.062 C 
ATOM     11  C0J MOL     1      -0.007  13.093   2.707  1.00  0.00    -0.135 C 
ATOM     12  C0I MOL     1      -0.101  11.693   2.969  1.00  0.00    -0.071 C 
ATOM     13  C0H MOL     1       0.004  10.778   1.943  1.00  0.00    -0.152 C 
ENDBRANCH   7   8
ENDBRANCH   5   7
BRANCH   6  14
ATOM     14  C0O MOL     1       3.537   9.797   0.090  1.00  0.00     0.092 C 
BRANCH  14  15
ATOM     15  N0P MOL     1       3.817  10.877   1.089  1.00  0.00    -0.153 N 
ATOM     16  H0Q MOL     1       3.137  10.856   1.832  1.00  0.00     0.257 HD
ATOM     17  H0R MOL     1       4.686  10.641   1.558  1.00  0.00     0.244 HD
ATOM     18  H0S MOL     1       3.823  11.816   0.716  1.00  0.00     0.246 HD
ENDBRANCH  14  15
ENDBRANCH   6  14
BRANCH   4  19
ATOM     19  C0A MOL     1      -0.369  11.216  -2.918  1.00  0.00    -0.219 C 
BRANCH  19  20
ATOM     20  C0B MOL     1      -1.275  10.137  -3.598  1.00  0.00     0.819 C 
ATOM     21  N0C MOL     1      -2.358  10.554  -4.178  1.00  0.00    -0.993 N 
ATOM     22  H13 MOL     1      -2.503  11.561  -4.183  1.00  0.00     0.395 HD
ATOM     23  H14 MOL     1      -3.018   9.900  -4.557  1.00  0.00     0.440 HD
ATOM     24  O0D MOL     1      -0.922   8.973  -3.648  1.00  0.00    -0.614 OA
ENDBRANCH  19  20
ENDBRANCH   4  19
BRANCH   1  25
ATOM     25  C01 MOL     1       5.439  10.277  -2.108  1.00  0.00    -0.066 C 
ATOM     26  C00 MOL     1       6.136  11.645  -1.644  1.00  0.00    -0.126 C 
ENDBRANCH   1  25
BRANCH   2  27
ATOM     27  C04 MOL     1       4.170  11.130  -4.824  1.00  0.00    -0.266 C 
BRANCH  27  28
ATOM     28  C05 MOL     1       4.817  12.491  -4.900  1.00  0.00     0.870 C 
ATOM     29  O06 MOL     1       5.703  12.785  -5.678  1.00  0.00    -0.820 OA
ATOM     30  O07 MOL     1       4.347  13.412  -4.150  1.00  0.00    -0.676 OA
ENDBRANCH  27  28
ENDBRANCH   2  27
TORSDOF 9
ENDMDL
