MODEL 1
REMARK VINA RESULT:      -6.2      0.000      0.000
REMARK  9 active torsions:
REMARK  status: ('A' for Active; 'I' for Inactive)
REMARK    1  A    between atoms: C01_2  and  C02_3 
REMARK    2  A    between atoms: C03_4  and  C04_5 
REMARK    3  A    between atoms: C04_5  and  C05_6 
REMARK    4  A    between atoms: C09_10  and  C0A_11 
REMARK    5  A    between atoms: C0A_11  and  C0B_12 
REMARK       I    between atoms: C0B_12  and  N0C_13 
REMARK    6  A    between atoms: C0E_15  and  C0F_16 
REMARK    7  A    between atoms: C0F_16  and  C0G_17 
REMARK    8  A    between atoms: C0N_23  and  C0O_24 
REMARK    9  A    between atoms: C0O_24  and  N0P_25 
ROOT
ATOM      1  C02 MOL     1       1.923   7.531  -6.377  1.00  0.00    -0.044 C 
ATOM      2  C03 MOL     1       1.380   6.396  -5.758  1.00  0.00     0.129 C 
ATOM      3  C08 MOL     1       0.409   6.482  -4.682  1.00  0.00    -0.316 C 
ATOM      4  C09 MOL     1      -0.096   7.727  -4.357  1.00  0.00     0.109 C 
ATOM      5  C0E MOL     1       0.436   8.875  -4.869  1.00  0.00    -0.064 C 
ATOM      6  C0N MOL     1       1.357   8.784  -5.940  1.00  0.00    -0.120 C 
ENDROOT
BRANCH   5   7
ATOM      7  C0F MOL     1      -0.093  10.214  -4.378  1.00  0.00     0.047 C 
BRANCH   7   8
ATOM      8  C0G MOL     1       0.494  10.839  -3.141  1.00  0.00     0.171 C 
ATOM      9  C0M MOL     1      -0.325  11.308  -2.094  1.00  0.00    -0.195 C 
ATOM     10  C0K MOL     1       0.239  11.912  -0.941  1.00  0.00    -0.062 C 
ATOM     11  C0J MOL     1       1.598  12.229  -0.867  1.00  0.00    -0.135 C 
ATOM     12  C0I MOL     1       2.396  11.773  -1.959  1.00  0.00    -0.071 C 
ATOM     13  C0H MOL     1       1.826  11.072  -3.000  1.00  0.00    -0.152 C 
ENDBRANCH   7   8
ENDBRANCH   5   7
BRANCH   6  14
ATOM     14  C0O MOL     1       1.936  10.068  -6.617  1.00  0.00     0.092 C 
BRANCH  14  15
ATOM     15  N0P MOL     1       1.173  10.614  -7.785  1.00  0.00    -0.153 N 
ATOM     16  H0Q MOL     1       1.452  10.154  -8.636  1.00  0.00     0.257 HD
ATOM     17  H0R MOL     1       0.203  10.336  -7.672  1.00  0.00     0.244 HD
ATOM     18  H0S MOL     1       1.274  11.608  -7.936  1.00  0.00     0.246 HD
ENDBRANCH  14  15
ENDBRANCH   6  14
BRANCH   4  19
ATOM     19  C0A MOL     1      -1.331   7.731  -3.428  1.00  0.00    -0.219 C 
BRANCH  19  20
ATOM     20  C0B MOL     1      -2.605   7.038  -4.013  1.00  0.00     0.819 C 
ATOM     21  N0C MOL     1      -2.884   5.847  -3.579  1.00  0.00    -0.993 N 
ATOM     22  H13 MOL     1      -2.271   5.482  -2.853  1.00  0.00     0.395 HD
ATOM     23  H14 MOL     1      -3.639   5.322  -3.980  1.00  0.00     0.440 HD
ATOM     24  O0D MOL     1      -3.341   7.635  -4.777  1.00  0.00    -0.614 OA
ENDBRANCH  19  20
ENDBRANCH   4  19
BRANCH   1  25
ATOM     25  C01 MOL     1       2.994   7.460  -7.488  1.00  0.00    -0.066 C 
ATOM     26  C00 MOL     1       2.341   7.373  -8.951  1.00  0.00    -0.126 C 
ENDBRANCH   1  25
BRANCH   2  27
ATOM     27  C04 MOL     1       1.804   4.972  -6.036  1.00  0.00    -0.266 C 
BRANCH  27  28
ATOM     28  C05 MOL     1       0.846   4.167  -6.878  1.00  0.00     0.870 C 
ATOM     29  O06 MOL     1      -0.012   3.433  -6.427  1.00  0.00    -0.820 OA
ATOM     30  O07 MOL     1       0.891   4.330  -8.145  1.00  0.00    -0.676 OA
ENDBRANCH  27  28
ENDBRANCH   2  27
TORSDOF 9
ENDMDL
MODEL 2
REMARK VINA RESULT:      -5.9      3.385      6.825
REMARK  9 active torsions:
REMARK  status: ('A' for Active; 'I' for Inactive)
REMARK    1  A    between atoms: C01_2  and  C02_3 
REMARK    2  A    between atoms: C03_4  and  C04_5 
REMARK    3  A    between atoms: C04_5  and  C05_6 
REMARK    4  A    between atoms: C09_10  and  C0A_11 
REMARK    5  A    between atoms: C0A_11  and  C0B_12 
REMARK       I    between atoms: C0B_12  and  N0C_13 
REMARK    6  A    between atoms: C0E_15  and  C0F_16 
REMARK    7  A    between atoms: C0F_16  and  C0G_17 
REMARK    8  A    between atoms: C0N_23  and  C0O_24 
REMARK    9  A    between atoms: C0O_24  and  N0P_25 
ROOT
ATOM      1  C02 MOL     1       0.695  11.026  -2.388  1.00  0.00    -0.044 C 
ATOM      2  C03 MOL     1       2.012  11.188  -2.839  1.00  0.00     0.129 C 
ATOM      3  C08 MOL     1       2.554  10.434  -3.957  1.00  0.00    -0.316 C 
ATOM      4  C09 MOL     1       1.692   9.633  -4.682  1.00  0.00     0.109 C 
ATOM      5  C0E MOL     1       0.420   9.376  -4.258  1.00  0.00    -0.064 C 
ATOM      6  C0N MOL     1      -0.111  10.138  -3.190  1.00  0.00    -0.120 C 
ENDROOT
BRANCH   5   7
ATOM      7  C0F MOL     1      -0.432   8.393  -5.044  1.00  0.00     0.047 C 
BRANCH   7   8
ATOM      8  C0G MOL     1      -0.439   6.938  -4.659  1.00  0.00     0.171 C 
ATOM      9  C0M MOL     1      -1.358   6.430  -3.718  1.00  0.00    -0.195 C 
ATOM     10  C0K MOL     1      -1.342   5.059  -3.350  1.00  0.00    -0.062 C 
ATOM     11  C0J MOL     1      -0.318   4.200  -3.758  1.00  0.00    -0.135 C 
ATOM     12  C0I MOL     1       0.618   4.753  -4.682  1.00  0.00    -0.071 C 
ATOM     13  C0H MOL     1       0.488   6.055  -5.118  1.00  0.00    -0.152 C 
ENDBRANCH   7   8
ENDBRANCH   5   7
BRANCH   6  14
ATOM     14  C0O MOL     1      -1.588   9.942  -2.716  1.00  0.00     0.092 C 
BRANCH  14  15
ATOM     15  N0P MOL     1      -2.640  10.695  -3.470  1.00  0.00    -0.153 N 
ATOM     16  H0Q MOL     1      -3.552  10.509  -3.086  1.00  0.00     0.257 HD
ATOM     17  H0R MOL     1      -2.501  11.684  -3.282  1.00  0.00     0.244 HD
ATOM     18  H0S MOL     1      -2.686  10.495  -4.459  1.00  0.00     0.246 HD
ENDBRANCH  14  15
ENDBRANCH   6  14
BRANCH   4  19
ATOM     19  C0A MOL     1       2.241   9.097  -6.024  1.00  0.00    -0.219 C 
BRANCH  19  20
ATOM     20  C0B MOL     1       2.321  10.151  -7.177  1.00  0.00     0.819 C 
ATOM     21  N0C MOL     1       1.212  10.455  -7.779  1.00  0.00    -0.993 N 
ATOM     22  H13 MOL     1       0.371  10.013  -7.415  1.00  0.00     0.395 HD
ATOM     23  H14 MOL     1       1.216  11.060  -8.579  1.00  0.00     0.440 HD
ATOM     24  O0D MOL     1       3.369  10.718  -7.428  1.00  0.00    -0.614 OA
ENDBRANCH  19  20
ENDBRANCH   4  19
BRANCH   1  25
ATOM     25  C01 MOL     1       0.117  11.780  -1.171  1.00  0.00    -0.066 C 
ATOM     26  C00 MOL     1       0.399  11.008   0.207  1.00  0.00    -0.126 C 
ENDBRANCH   1  25
BRANCH   2  27
ATOM     27  C04 MOL     1       3.055  12.057  -2.173  1.00  0.00    -0.266 C 
BRANCH  27  28
ATOM     28  C05 MOL     1       4.163  11.311  -1.473  1.00  0.00     0.870 C 
ATOM     29  O06 MOL     1       5.332  11.353  -1.805  1.00  0.00    -0.820 OA
ATOM     30  O07 MOL     1       3.863  10.658  -0.418  1.00  0.00    -0.676 OA
ENDBRANCH  27  28
ENDBRANCH   2  27
TORSDOF 9
ENDMDL
MODEL 3
REMARK VINA RESULT:      -5.8      3.369      7.002
REMARK  9 active torsions:
REMARK  status: ('A' for Active; 'I' for Inactive)
REMARK    1  A    between atoms: C01_2  and  C02_3 
REMARK    2  A    between atoms: C03_4  and  C04_5 
REMARK    3  A    between atoms: C04_5  and  C05_6 
REMARK    4  A    between atoms: C09_10  and  C0A_11 
REMARK    5  A    between atoms: C0A_11  and  C0B_12 
REMARK       I    between atoms: C0B_12  and  N0C_13 
REMARK    6  A    between atoms: C0E_15  and  C0F_16 
REMARK    7  A    between atoms: C0F_16  and  C0G_17 
REMARK    8  A    between atoms: C0N_23  and  C0O_24 
REMARK    9  A    between atoms: C0O_24  and  N0P_25 
ROOT
ATOM      1  C02 MOL     1       2.218  10.257  -0.886  1.00  0.00    -0.044 C 
ATOM      2  C03 MOL     1       1.002  10.954  -0.895  1.00  0.00     0.129 C 
ATOM      3  C08 MOL     1       0.160  11.042  -2.075  1.00  0.00    -0.316 C 
ATOM      4  C09 MOL     1       0.509  10.293  -3.182  1.00  0.00     0.109 C 
ATOM      5  C0E MOL     1       1.710   9.650  -3.266  1.00  0.00    -0.064 C 
ATOM      6  C0N MOL     1       2.509   9.540  -2.104  1.00  0.00    -0.120 C 
ENDROOT
BRANCH   5   7
ATOM      7  C0F MOL     1       2.077   8.942  -4.561  1.00  0.00     0.047 C 
BRANCH   7   8
ATOM      8  C0G MOL     1       1.576   7.546  -4.816  1.00  0.00     0.171 C 
ATOM      9  C0M MOL     1       1.433   7.043  -6.126  1.00  0.00    -0.195 C 
ATOM     10  C0K MOL     1       0.942   5.731  -6.354  1.00  0.00    -0.062 C 
ATOM     11  C0J MOL     1       0.416   4.952  -5.319  1.00  0.00    -0.135 C 
ATOM     12  C0I MOL     1       0.543   5.504  -4.009  1.00  0.00    -0.071 C 
ATOM     13  C0H MOL     1       1.148   6.728  -3.818  1.00  0.00    -0.152 C 
ENDBRANCH   7   8
ENDBRANCH   5   7
BRANCH   6  14
ATOM     14  C0O MOL     1       3.856   8.747  -2.123  1.00  0.00     0.092 C 
BRANCH  14  15
ATOM     15  N0P MOL     1       3.790   7.302  -1.731  1.00  0.00    -0.153 N 
ATOM     16  H0Q MOL     1       3.312   6.766  -2.437  1.00  0.00     0.257 HD
ATOM     17  H0R MOL     1       4.737   6.936  -1.755  1.00  0.00     0.244 HD
ATOM     18  H0S MOL     1       3.328   7.117  -0.852  1.00  0.00     0.246 HD
ENDBRANCH  14  15
ENDBRANCH   6  14
BRANCH   4  19
ATOM     19  C0A MOL     1      -0.566  10.185  -4.288  1.00  0.00    -0.219 C 
BRANCH  19  20
ATOM     20  C0B MOL     1      -1.612   9.040  -4.087  1.00  0.00     0.819 C 
ATOM     21  N0C MOL     1      -1.923   8.332  -5.130  1.00  0.00    -0.993 N 
ATOM     22  H13 MOL     1      -1.420   8.554  -5.986  1.00  0.00     0.395 HD
ATOM     23  H14 MOL     1      -2.648   7.641  -5.079  1.00  0.00     0.440 HD
ATOM     24  O0D MOL     1      -2.041   8.778  -2.978  1.00  0.00    -0.614 OA
ENDBRANCH  19  20
ENDBRANCH   4  19
BRANCH   1  25
ATOM     25  C01 MOL     1       3.151  10.195   0.343  1.00  0.00    -0.066 C 
ATOM     26  C00 MOL     1       4.233  11.379   0.339  1.00  0.00    -0.126 C 
ENDBRANCH   1  25
BRANCH   2  27
ATOM     27  C04 MOL     1       0.471  11.784   0.253  1.00  0.00    -0.266 C 
BRANCH  27  28
ATOM     28  C05 MOL     1       0.718  13.267   0.143  1.00  0.00     0.870 C 
ATOM     29  O06 MOL     1       1.813  13.770  -0.017  1.00  0.00    -0.820 OA
ATOM     30  O07 MOL     1      -0.301  14.038   0.141  1.00  0.00    -0.676 OA
ENDBRANCH  27  28
ENDBRANCH   2  27
TORSDOF 9
ENDMDL
MODEL 4
REMARK VINA RESULT:      -5.8      3.986      7.418
REMARK  9 active torsions:
REMARK  status: ('A' for Active; 'I' for Inactive)
REMARK    1  A    between atoms: C01_2  and  C02_3 
REMARK    2  A    between atoms: C03_4  and  C04_5 
REMARK    3  A    between atoms: C04_5  and  C05_6 
REMARK    4  A    between atoms: C09_10  and  C0A_11 
REMARK    5  A    between atoms: C0A_11  and  C0B_12 
REMARK       I    between atoms: C0B_12  and  N0C_13 
REMARK    6  A    between atoms: C0E_15  and  C0F_16 
REMARK    7  A    between atoms: C0F_16  and  C0G_17 
REMARK    8  A    between atoms: C0N_23  and  C0O_24 
REMARK    9  A    between atoms: C0O_24  and  N0P_25 
ROOT
ATOM      1  C02 MOL     1       2.337  11.657  -0.005  1.00  0.00    -0.044 C 
ATOM      2  C03 MOL     1       1.123  12.341   0.153  1.00  0.00     0.129 C 
ATOM      3  C08 MOL     1       0.076  12.318  -0.853  1.00  0.00    -0.316 C 
ATOM      4  C09 MOL     1       0.233  11.478  -1.939  1.00  0.00     0.109 C 
ATOM      5  C0E MOL     1       1.413  10.840  -2.190  1.00  0.00    -0.064 C 
ATOM      6  C0N MOL     1       2.416  10.839  -1.191  1.00  0.00    -0.120 C 
ENDROOT
BRANCH   5   7
ATOM      7  C0F MOL     1       1.552  10.024  -3.466  1.00  0.00     0.047 C 
BRANCH   7   8
ATOM      8  C0G MOL     1       1.941  10.708  -4.749  1.00  0.00     0.171 C 
ATOM      9  C0M MOL     1       1.080  10.720  -5.866  1.00  0.00    -0.195 C 
ATOM     10  C0K MOL     1       1.465  11.353  -7.077  1.00  0.00    -0.062 C 
ATOM     11  C0J MOL     1       2.764  11.829  -7.277  1.00  0.00    -0.135 C 
ATOM     12  C0I MOL     1       3.623  11.771  -6.139  1.00  0.00    -0.071 C 
ATOM     13  C0H MOL     1       3.165  11.267  -4.939  1.00  0.00    -0.152 C 
ENDBRANCH   7   8
ENDBRANCH   5   7
BRANCH   6  14
ATOM     14  C0O MOL     1       3.755  10.058  -1.393  1.00  0.00     0.092 C 
BRANCH  14  15
ATOM     15  N0P MOL     1       3.785   8.641  -0.910  1.00  0.00    -0.153 N 
ATOM     16  H0Q MOL     1       4.075   8.601   0.053  1.00  0.00     0.257 HD
ATOM     17  H0R MOL     1       2.826   8.308  -0.883  1.00  0.00     0.244 HD
ATOM     18  H0S MOL     1       4.392   8.023  -1.430  1.00  0.00     0.246 HD
ENDBRANCH  14  15
ENDBRANCH   6  14
BRANCH   4  19
ATOM     19  C0A MOL     1      -1.024  11.265  -2.812  1.00  0.00    -0.219 C 
BRANCH  19  20
ATOM     20  C0B MOL     1      -1.701   9.862  -2.670  1.00  0.00     0.819 C 
ATOM     21  N0C MOL     1      -1.930   9.201  -3.763  1.00  0.00    -0.993 N 
ATOM     22  H13 MOL     1      -1.603   9.634  -4.623  1.00  0.00     0.395 HD
ATOM     23  H14 MOL     1      -2.437   8.335  -3.738  1.00  0.00     0.440 HD
ATOM     24  O0D MOL     1      -1.919   9.387  -1.570  1.00  0.00    -0.614 OA
ENDBRANCH  19  20
ENDBRANCH   4  19
BRANCH   1  25
ATOM     25  C01 MOL     1       3.482  11.711   1.030  1.00  0.00    -0.066 C 
ATOM     26  C00 MOL     1       3.266  10.662   2.224  1.00  0.00    -0.126 C 
ENDBRANCH   1  25
BRANCH   2  27
ATOM     27  C04 MOL     1       0.793  13.263   1.305  1.00  0.00    -0.266 C 
BRANCH  27  28
ATOM     28  C05 MOL     1      -0.196  12.718   2.303  1.00  0.00     0.870 C 
ATOM     29  O06 MOL     1      -0.116  11.620   2.818  1.00  0.00    -0.820 OA
ATOM     30  O07 MOL     1      -1.135  13.494   2.690  1.00  0.00    -0.676 OA
ENDBRANCH  27  28
ENDBRANCH   2  27
TORSDOF 9
ENDMDL
MODEL 5
REMARK VINA RESULT:      -5.8      2.229      2.993
REMARK  9 active torsions:
REMARK  status: ('A' for Active; 'I' for Inactive)
REMARK    1  A    between atoms: C01_2  and  C02_3 
REMARK    2  A    between atoms: C03_4  and  C04_5 
REMARK    3  A    between atoms: C04_5  and  C05_6 
REMARK    4  A    between atoms: C09_10  and  C0A_11 
REMARK    5  A    between atoms: C0A_11  and  C0B_12 
REMARK       I    between atoms: C0B_12  and  N0C_13 
REMARK    6  A    between atoms: C0E_15  and  C0F_16 
REMARK    7  A    between atoms: C0F_16  and  C0G_17 
REMARK    8  A    between atoms: C0N_23  and  C0O_24 
REMARK    9  A    between atoms: C0O_24  and  N0P_25 
ROOT
ATOM      1  C02 MOL     1       1.737   6.591  -5.495  1.00  0.00    -0.044 C 
ATOM      2  C03 MOL     1       1.110   6.282  -4.280  1.00  0.00     0.129 C 
ATOM      3  C08 MOL     1       0.693   7.303  -3.334  1.00  0.00    -0.316 C 
ATOM      4  C09 MOL     1       0.797   8.627  -3.716  1.00  0.00     0.109 C 
ATOM      5  C0E MOL     1       1.458   8.999  -4.850  1.00  0.00    -0.064 C 
ATOM      6  C0N MOL     1       1.831   8.002  -5.782  1.00  0.00    -0.120 C 
ENDROOT
BRANCH   5   7
ATOM      7  C0F MOL     1       1.634  10.480  -5.147  1.00  0.00     0.047 C 
BRANCH   7   8
ATOM      8  C0G MOL     1       2.899  11.179  -4.730  1.00  0.00     0.171 C 
ATOM      9  C0M MOL     1       3.194  11.416  -3.371  1.00  0.00    -0.195 C 
ATOM     10  C0K MOL     1       4.382  12.093  -2.990  1.00  0.00    -0.062 C 
ATOM     11  C0J MOL     1       5.214  12.706  -3.932  1.00  0.00    -0.135 C 
ATOM     12  C0I MOL     1       4.869  12.477  -5.298  1.00  0.00    -0.071 C 
ATOM     13  C0H MOL     1       3.777  11.701  -5.626  1.00  0.00    -0.152 C 
ENDBRANCH   7   8
ENDBRANCH   5   7
BRANCH   6  14
ATOM     14  C0O MOL     1       2.519   8.378  -7.135  1.00  0.00     0.092 C 
BRANCH  14  15
ATOM     15  N0P MOL     1       1.612   8.717  -8.278  1.00  0.00    -0.153 N 
ATOM     16  H0Q MOL     1       1.111   9.569  -8.091  1.00  0.00     0.257 HD
ATOM     17  H0R MOL     1       2.199   8.955  -9.072  1.00  0.00     0.244 HD
ATOM     18  H0S MOL     1       0.927   8.010  -8.505  1.00  0.00     0.246 HD
ENDBRANCH  14  15
ENDBRANCH   6  14
BRANCH   4  19
ATOM     19  C0A MOL     1       0.069   9.647  -2.810  1.00  0.00    -0.219 C 
BRANCH  19  20
ATOM     20  C0B MOL     1      -1.487   9.501  -2.762  1.00  0.00     0.819 C 
ATOM     21  N0C MOL     1      -2.144   9.806  -3.838  1.00  0.00    -0.993 N 
ATOM     22  H13 MOL     1      -1.583  10.072  -4.644  1.00  0.00     0.395 HD
ATOM     23  H14 MOL     1      -3.148   9.811  -3.839  1.00  0.00     0.440 HD
ATOM     24  O0D MOL     1      -2.037   9.036  -1.780  1.00  0.00    -0.614 OA
ENDBRANCH  19  20
ENDBRANCH   4  19
BRANCH   1  25
ATOM     25  C01 MOL     1       2.233   5.518  -6.490  1.00  0.00    -0.066 C 
ATOM     26  C00 MOL     1       3.692   4.972  -6.109  1.00  0.00    -0.126 C 
ENDBRANCH   1  25
BRANCH   2  27
ATOM     27  C04 MOL     1       0.893   4.884  -3.748  1.00  0.00    -0.266 C 
BRANCH  27  28
ATOM     28  C05 MOL     1      -0.473   4.301  -4.006  1.00  0.00     0.870 C 
ATOM     29  O06 MOL     1      -1.491   4.672  -3.455  1.00  0.00    -0.820 OA
ATOM     30  O07 MOL     1      -0.576   3.415  -4.921  1.00  0.00    -0.676 OA
ENDBRANCH  27  28
ENDBRANCH   2  27
TORSDOF 9
ENDMDL
MODEL 6
REMARK VINA RESULT:      -5.8      2.124      3.972
REMARK  9 active torsions:
REMARK  status: ('A' for Active; 'I' for Inactive)
REMARK    1  A    between atoms: C01_2  and  C02_3 
REMARK    2  A    between atoms: C03_4  and  C04_5 
REMARK    3  A    between atoms: C04_5  and  C05_6 
REMARK    4  A    between atoms: C09_10  and  C0A_11 
REMARK    5  A    between atoms: C0A_11  and  C0B_12 
REMARK       I    between atoms: C0B_12  and  N0C_13 
REMARK    6  A    between atoms: C0E_15  and  C0F_16 
REMARK    7  A    between atoms: C0F_16  and  C0G_17 
REMARK    8  A    between atoms: C0N_23  and  C0O_24 
REMARK    9  A    between atoms: C0O_24  and  N0P_25 
ROOT
ATOM      1  C02 MOL     1       0.343   5.553  -4.850  1.00  0.00    -0.044 C 
ATOM      2  C03 MOL     1       1.260   6.044  -5.790  1.00  0.00     0.129 C 
ATOM      3  C08 MOL     1       1.353   7.453  -6.129  1.00  0.00    -0.316 C 
ATOM      4  C09 MOL     1       0.604   8.352  -5.394  1.00  0.00     0.109 C 
ATOM      5  C0E MOL     1      -0.356   7.939  -4.516  1.00  0.00    -0.064 C 
ATOM      6  C0N MOL     1      -0.419   6.569  -4.166  1.00  0.00    -0.120 C 
ENDROOT
BRANCH   5   7
ATOM      7  C0F MOL     1      -1.222   8.983  -3.828  1.00  0.00     0.047 C 
BRANCH   7   8
ATOM      8  C0G MOL     1      -0.693   9.716  -2.625  1.00  0.00     0.171 C 
ATOM      9  C0M MOL     1      -0.695  11.125  -2.562  1.00  0.00    -0.195 C 
ATOM     10  C0K MOL     1      -0.178  11.805  -1.429  1.00  0.00    -0.062 C 
ATOM     11  C0J MOL     1       0.512  11.130  -0.418  1.00  0.00    -0.135 C 
ATOM     12  C0I MOL     1       0.528   9.707  -0.528  1.00  0.00    -0.071 C 
ATOM     13  C0H MOL     1      -0.103   9.077  -1.580  1.00  0.00    -0.152 C 
ENDBRANCH   7   8
ENDBRANCH   5   7
BRANCH   6  14
ATOM     14  C0O MOL     1      -1.446   6.054  -3.106  1.00  0.00     0.092 C 
BRANCH  14  15
ATOM     15  N0P MOL     1      -2.837   5.786  -3.594  1.00  0.00    -0.153 N 
ATOM     16  H0Q MOL     1      -3.178   6.563  -4.135  1.00  0.00     0.257 HD
ATOM     17  H0R MOL     1      -2.782   5.031  -4.271  1.00  0.00     0.244 HD
ATOM     18  H0S MOL     1      -3.518   5.604  -2.870  1.00  0.00     0.246 HD
ENDBRANCH  14  15
ENDBRANCH   6  14
BRANCH   4  19
ATOM     19  C0A MOL     1       0.963   9.843  -5.587  1.00  0.00    -0.219 C 
BRANCH  19  20
ATOM     20  C0B MOL     1       2.390  10.252  -5.095  1.00  0.00     0.819 C 
ATOM     21  N0C MOL     1       2.586  10.287  -3.812  1.00  0.00    -0.993 N 
ATOM     22  H13 MOL     1       1.803   9.996  -3.233  1.00  0.00     0.395 HD
ATOM     23  H14 MOL     1       3.455  10.622  -3.439  1.00  0.00     0.440 HD
ATOM     24  O0D MOL     1       3.291  10.441  -5.892  1.00  0.00    -0.614 OA
ENDBRANCH  19  20
ENDBRANCH   4  19
BRANCH   1  25
ATOM     25  C01 MOL     1       0.193   4.053  -4.514  1.00  0.00    -0.066 C 
ATOM     26  C00 MOL     1      -0.620   3.259  -5.646  1.00  0.00    -0.126 C 
ENDBRANCH   1  25
BRANCH   2  27
ATOM     27  C04 MOL     1       2.170   5.187  -6.640  1.00  0.00    -0.266 C 
BRANCH  27  28
ATOM     28  C05 MOL     1       1.860   5.185  -8.116  1.00  0.00     0.870 C 
ATOM     29  O06 MOL     1       2.515   5.774  -8.955  1.00  0.00    -0.820 OA
ATOM     30  O07 MOL     1       0.893   4.453  -8.517  1.00  0.00    -0.676 OA
ENDBRANCH  27  28
ENDBRANCH   2  27
TORSDOF 9
ENDMDL
MODEL 7
REMARK VINA RESULT:      -5.6      2.348      2.727
REMARK  9 active torsions:
REMARK  status: ('A' for Active; 'I' for Inactive)
REMARK    1  A    between atoms: C01_2  and  C02_3 
REMARK    2  A    between atoms: C03_4  and  C04_5 
REMARK    3  A    between atoms: C04_5  and  C05_6 
REMARK    4  A    between atoms: C09_10  and  C0A_11 
REMARK    5  A    between atoms: C0A_11  and  C0B_12 
REMARK       I    between atoms: C0B_12  and  N0C_13 
REMARK    6  A    between atoms: C0E_15  and  C0F_16 
REMARK    7  A    between atoms: C0F_16  and  C0G_17 
REMARK    8  A    between atoms: C0N_23  and  C0O_24 
REMARK    9  A    between atoms: C0O_24  and  N0P_25 
ROOT
ATOM      1  C02 MOL     1       2.781   5.600  -5.325  1.00  0.00    -0.044 C 
ATOM      2  C03 MOL     1       1.659   4.976  -5.887  1.00  0.00     0.129 C 
ATOM      3  C08 MOL     1       0.312   5.192  -5.388  1.00  0.00    -0.316 C 
ATOM      4  C09 MOL     1       0.123   6.155  -4.416  1.00  0.00     0.109 C 
ATOM      5  C0E MOL     1       1.174   6.749  -3.778  1.00  0.00    -0.064 C 
ATOM      6  C0N MOL     1       2.480   6.559  -4.290  1.00  0.00    -0.120 C 
ENDROOT
BRANCH   5   7
ATOM      7  C0F MOL     1       0.892   7.714  -2.637  1.00  0.00     0.047 C 
BRANCH   7   8
ATOM      8  C0G MOL     1       0.267   9.051  -2.928  1.00  0.00     0.171 C 
ATOM      9  C0M MOL     1      -0.764   9.573  -2.119  1.00  0.00    -0.195 C 
ATOM     10  C0K MOL     1      -1.358  10.828  -2.415  1.00  0.00    -0.062 C 
ATOM     11  C0J MOL     1      -1.082  11.511  -3.602  1.00  0.00    -0.135 C 
ATOM     12  C0I MOL     1      -0.059  10.939  -4.417  1.00  0.00    -0.071 C 
ATOM     13  C0H MOL     1       0.587   9.785  -4.026  1.00  0.00    -0.152 C 
ENDBRANCH   7   8
ENDBRANCH   5   7
BRANCH   6  14
ATOM     14  C0O MOL     1       3.710   7.279  -3.647  1.00  0.00     0.092 C 
BRANCH  14  15
ATOM     15  N0P MOL     1       4.071   8.621  -4.207  1.00  0.00    -0.153 N 
ATOM     16  H0Q MOL     1       3.371   8.931  -4.862  1.00  0.00     0.257 HD
ATOM     17  H0R MOL     1       4.003   9.295  -3.451  1.00  0.00     0.244 HD
ATOM     18  H0S MOL     1       4.962   8.662  -4.681  1.00  0.00     0.246 HD
ENDBRANCH  14  15
ENDBRANCH   6  14
BRANCH   4  19
ATOM     19  C0A MOL     1      -1.344   6.555  -4.140  1.00  0.00    -0.219 C 
BRANCH  19  20
ATOM     20  C0B MOL     1      -2.175   5.511  -3.324  1.00  0.00     0.819 C 
ATOM     21  N0C MOL     1      -3.454   5.476  -3.535  1.00  0.00    -0.993 N 
ATOM     22  H13 MOL     1      -3.805   6.104  -4.255  1.00  0.00     0.395 HD
ATOM     23  H14 MOL     1      -4.047   4.886  -2.981  1.00  0.00     0.440 HD
ATOM     24  O0D MOL     1      -1.620   4.713  -2.590  1.00  0.00    -0.614 OA
ENDBRANCH  19  20
ENDBRANCH   4  19
BRANCH   1  25
ATOM     25  C01 MOL     1       4.225   5.344  -5.808  1.00  0.00    -0.066 C 
ATOM     26  C00 MOL     1       4.601   6.235  -7.088  1.00  0.00    -0.126 C 
ENDBRANCH   1  25
BRANCH   2  27
ATOM     27  C04 MOL     1       1.706   3.933  -6.980  1.00  0.00    -0.266 C 
BRANCH  27  28
ATOM     28  C05 MOL     1       1.532   4.460  -8.382  1.00  0.00     0.870 C 
ATOM     29  O06 MOL     1       1.580   3.773  -9.384  1.00  0.00    -0.820 OA
ATOM     30  O07 MOL     1       1.237   5.696  -8.517  1.00  0.00    -0.676 OA
ENDBRANCH  27  28
ENDBRANCH   2  27
TORSDOF 9
ENDMDL
MODEL 8
REMARK VINA RESULT:      -5.6      2.578      3.193
REMARK  9 active torsions:
REMARK  status: ('A' for Active; 'I' for Inactive)
REMARK    1  A    between atoms: C01_2  and  C02_3 
REMARK    2  A    between atoms: C03_4  and  C04_5 
REMARK    3  A    between atoms: C04_5  and  C05_6 
REMARK    4  A    between atoms: C09_10  and  C0A_11 
REMARK    5  A    between atoms: C0A_11  and  C0B_12 
REMARK       I    between atoms: C0B_12  and  N0C_13 
REMARK    6  A    between atoms: C0E_15  and  C0F_16 
REMARK    7  A    between atoms: C0F_16  and  C0G_17 
REMARK    8  A    between atoms: C0N_23  and  C0O_24 
REMARK    9  A    between atoms: C0O_24  and  N0P_25 
ROOT
ATOM      1  C02 MOL     1       1.949   6.838  -4.196  1.00  0.00    -0.044 C 
ATOM      2  C03 MOL     1       0.654   6.795  -4.730  1.00  0.00     0.129 C 
ATOM      3  C08 MOL     1      -0.272   7.910  -4.629  1.00  0.00    -0.316 C 
ATOM      4  C09 MOL     1       0.198   9.101  -4.108  1.00  0.00     0.109 C 
ATOM      5  C0E MOL     1       1.421   9.193  -3.508  1.00  0.00    -0.064 C 
ATOM      6  C0N MOL     1       2.328   8.114  -3.640  1.00  0.00    -0.120 C 
ENDROOT
BRANCH   5   7
ATOM      7  C0F MOL     1       1.823  10.504  -2.853  1.00  0.00     0.047 C 
BRANCH   7   8
ATOM      8  C0G MOL     1       1.385  10.799  -1.444  1.00  0.00     0.171 C 
ATOM      9  C0M MOL     1       0.841   9.795  -0.617  1.00  0.00    -0.195 C 
ATOM     10  C0K MOL     1       0.415  10.089   0.704  1.00  0.00    -0.062 C 
ATOM     11  C0J MOL     1       0.346  11.401   1.180  1.00  0.00    -0.135 C 
ATOM     12  C0I MOL     1       0.871  12.400   0.305  1.00  0.00    -0.071 C 
ATOM     13  C0H MOL     1       1.399  12.054  -0.921  1.00  0.00    -0.152 C 
ENDBRANCH   7   8
ENDBRANCH   5   7
BRANCH   6  14
ATOM     14  C0O MOL     1       3.771   8.197  -3.042  1.00  0.00     0.092 C 
BRANCH  14  15
ATOM     15  N0P MOL     1       3.908   7.912  -1.578  1.00  0.00    -0.153 N 
ATOM     16  H0Q MOL     1       3.044   8.107  -1.098  1.00  0.00     0.257 HD
ATOM     17  H0R MOL     1       4.017   6.908  -1.472  1.00  0.00     0.244 HD
ATOM     18  H0S MOL     1       4.636   8.430  -1.107  1.00  0.00     0.246 HD
ENDBRANCH  14  15
ENDBRANCH   6  14
BRANCH   4  19
ATOM     19  C0A MOL     1      -0.723  10.328  -4.299  1.00  0.00    -0.219 C 
BRANCH  19  20
ATOM     20  C0B MOL     1      -2.125  10.219  -3.614  1.00  0.00     0.819 C 
ATOM     21  N0C MOL     1      -3.167  10.282  -4.384  1.00  0.00    -0.993 N 
ATOM     22  H13 MOL     1      -2.981  10.350  -5.382  1.00  0.00     0.395 HD
ATOM     23  H14 MOL     1      -4.090  10.302  -3.992  1.00  0.00     0.440 HD
ATOM     24  O0D MOL     1      -2.216   9.997  -2.420  1.00  0.00    -0.614 OA
ENDBRANCH  19  20
ENDBRANCH   4  19
BRANCH   1  25
ATOM     25  C01 MOL     1       2.928   5.645  -4.249  1.00  0.00    -0.066 C 
ATOM     26  C00 MOL     1       3.671   5.538  -5.667  1.00  0.00    -0.126 C 
ENDBRANCH   1  25
BRANCH   2  27
ATOM     27  C04 MOL     1       0.019   5.578  -5.364  1.00  0.00    -0.266 C 
BRANCH  27  28
ATOM     28  C05 MOL     1      -0.458   4.523  -4.397  1.00  0.00     0.870 C 
ATOM     29  O06 MOL     1      -0.830   4.751  -3.263  1.00  0.00    -0.820 OA
ATOM     30  O07 MOL     1      -0.548   3.324  -4.828  1.00  0.00    -0.676 OA
ENDBRANCH  27  28
ENDBRANCH   2  27
TORSDOF 9
ENDMDL
MODEL 9
REMARK VINA RESULT:      -5.5     19.736     22.722
REMARK  9 active torsions:
REMARK  status: ('A' for Active; 'I' for Inactive)
REMARK    1  A    between atoms: C01_2  and  C02_3 
REMARK    2  A    between atoms: C03_4  and  C04_5 
REMARK    3  A    between atoms: C04_5  and  C05_6 
REMARK    4  A    between atoms: C09_10  and  C0A_11 
REMARK    5  A    between atoms: C0A_11  and  C0B_12 
REMARK       I    between atoms: C0B_12  and  N0C_13 
REMARK    6  A    between atoms: C0E_15  and  C0F_16 
REMARK    7  A    between atoms: C0F_16  and  C0G_17 
REMARK    8  A    between atoms: C0N_23  and  C0O_24 
REMARK    9  A    between atoms: C0O_24  and  N0P_25 
ROOT
ATOM      1  C02 MOL     1     -12.380   1.782  11.744  1.00  0.00    -0.044 C 
ATOM      2  C03 MOL     1     -11.336   2.336  10.990  1.00  0.00     0.129 C 
ATOM      3  C08 MOL     1      -9.965   1.867  11.091  1.00  0.00    -0.316 C 
ATOM      4  C09 MOL     1      -9.715   0.744  11.857  1.00  0.00     0.109 C 
ATOM      5  C0E MOL     1     -10.668   0.199  12.669  1.00  0.00    -0.064 C 
ATOM      6  C0N MOL     1     -12.007   0.639  12.540  1.00  0.00    -0.120 C 
ENDROOT
BRANCH   5   7
ATOM      7  C0F MOL     1     -10.288  -0.964  13.571  1.00  0.00     0.047 C 
BRANCH   7   8
ATOM      8  C0G MOL     1     -10.380  -0.809  15.065  1.00  0.00     0.171 C 
ATOM      9  C0M MOL     1     -10.288   0.456  15.681  1.00  0.00    -0.195 C 
ATOM     10  C0K MOL     1     -10.358   0.587  17.092  1.00  0.00    -0.062 C 
ATOM     11  C0J MOL     1     -10.340  -0.527  17.937  1.00  0.00    -0.135 C 
ATOM     12  C0I MOL     1     -10.398  -1.794  17.283  1.00  0.00    -0.071 C 
ATOM     13  C0H MOL     1     -10.462  -1.873  15.908  1.00  0.00    -0.152 C 
ENDBRANCH   7   8
ENDBRANCH   5   7
BRANCH   6  14
ATOM     14  C0O MOL     1     -13.152  -0.006  13.388  1.00  0.00     0.092 C 
BRANCH  14  15
ATOM     15  N0P MOL     1     -13.779  -1.248  12.834  1.00  0.00    -0.153 N 
ATOM     16  H0Q MOL     1     -14.130  -1.829  13.578  1.00  0.00     0.257 HD
ATOM     17  H0R MOL     1     -14.618  -0.970  12.334  1.00  0.00     0.244 HD
ATOM     18  H0S MOL     1     -13.167  -1.823  12.271  1.00  0.00     0.246 HD
ENDBRANCH  14  15
ENDBRANCH   6  14
BRANCH   4  19
ATOM     19  C0A MOL     1      -8.312   0.115  11.691  1.00  0.00    -0.219 C 
BRANCH  19  20
ATOM     20  C0B MOL     1      -7.360   0.869  10.707  1.00  0.00     0.819 C 
ATOM     21  N0C MOL     1      -7.412   0.530   9.455  1.00  0.00    -0.993 N 
ATOM     22  H13 MOL     1      -8.109  -0.170   9.211  1.00  0.00     0.395 HD
ATOM     23  H14 MOL     1      -6.767   0.920   8.793  1.00  0.00     0.440 HD
ATOM     24  O0D MOL     1      -6.667   1.791  11.097  1.00  0.00    -0.614 OA
ENDBRANCH  19  20
ENDBRANCH   4  19
BRANCH   1  25
ATOM     25  C01 MOL     1     -13.834   2.301  11.687  1.00  0.00    -0.066 C 
ATOM     26  C00 MOL     1     -14.634   1.718  10.425  1.00  0.00    -0.126 C 
ENDBRANCH   1  25
BRANCH   2  27
ATOM     27  C04 MOL     1     -11.466   3.537  10.082  1.00  0.00    -0.266 C 
BRANCH  27  28
ATOM     28  C05 MOL     1     -10.365   4.560  10.204  1.00  0.00     0.870 C 
ATOM     29  O06 MOL     1      -9.435   4.661   9.428  1.00  0.00    -0.820 OA
ATOM     30  O07 MOL     1     -10.462   5.424  11.141  1.00  0.00    -0.676 OA
ENDBRANCH  27  28
ENDBRANCH   2  27
TORSDOF 9
ENDMDL
MODEL 10
REMARK VINA RESULT:      -5.5     15.805     18.839
REMARK  9 active torsions:
REMARK  status: ('A' for Active; 'I' for Inactive)
REMARK    1  A    between atoms: C01_2  and  C02_3 
REMARK    2  A    between atoms: C03_4  and  C04_5 
REMARK    3  A    between atoms: C04_5  and  C05_6 
REMARK    4  A    between atoms: C09_10  and  C0A_11 
REMARK    5  A    between atoms: C0A_11  and  C0B_12 
REMARK       I    between atoms: C0B_12  and  N0C_13 
REMARK    6  A    between atoms: C0E_15  and  C0F_16 
REMARK    7  A    between atoms: C0F_16  and  C0G_17 
REMARK    8  A    between atoms: C0N_23  and  C0O_24 
REMARK    9  A    between atoms: C0O_24  and  N0P_25 
ROOT
ATOM      1  C02 MOL     1      -5.695   9.274 -24.001  1.00  0.00    -0.044 C 
ATOM      2  C03 MOL     1      -6.653   8.400 -23.469  1.00  0.00     0.129 C 
ATOM      3  C08 MOL     1      -6.455   7.691 -22.217  1.00  0.00    -0.316 C 
ATOM      4  C09 MOL     1      -5.340   8.001 -21.462  1.00  0.00     0.109 C 
ATOM      5  C0E MOL     1      -4.337   8.787 -21.949  1.00  0.00    -0.064 C 
ATOM      6  C0N MOL     1      -4.551   9.500 -23.153  1.00  0.00    -0.120 C 
ENDROOT
BRANCH   5   7
ATOM      7  C0F MOL     1      -3.086   8.990 -21.108  1.00  0.00     0.047 C 
BRANCH   7   8
ATOM      8  C0G MOL     1      -1.902   8.084 -21.302  1.00  0.00     0.171 C 
ATOM      9  C0M MOL     1      -0.996   8.274 -22.366  1.00  0.00    -0.195 C 
ATOM     10  C0K MOL     1       0.108   7.401 -22.550  1.00  0.00    -0.062 C 
ATOM     11  C0J MOL     1       0.248   6.226 -21.807  1.00  0.00    -0.135 C 
ATOM     12  C0I MOL     1      -0.705   6.043 -20.759  1.00  0.00    -0.071 C 
ATOM     13  C0H MOL     1      -1.686   6.985 -20.530  1.00  0.00    -0.152 C 
ENDBRANCH   7   8
ENDBRANCH   5   7
BRANCH   6  14
ATOM     14  C0O MOL     1      -3.466  10.476 -23.715  1.00  0.00     0.092 C 
BRANCH  14  15
ATOM     15  N0P MOL     1      -3.542  11.900 -23.255  1.00  0.00    -0.153 N 
ATOM     16  H0Q MOL     1      -4.210  12.414 -23.806  1.00  0.00     0.257 HD
ATOM     17  H0R MOL     1      -3.951  11.899 -22.326  1.00  0.00     0.244 HD
ATOM     18  H0S MOL     1      -2.670  12.409 -23.291  1.00  0.00     0.246 HD
ENDBRANCH  14  15
ENDBRANCH   6  14
BRANCH   4  19
ATOM     19  C0A MOL     1      -5.332   7.450 -20.017  1.00  0.00    -0.219 C 
BRANCH  19  20
ATOM     20  C0B MOL     1      -5.985   8.384 -18.947  1.00  0.00     0.819 C 
ATOM     21  N0C MOL     1      -6.828   7.842 -18.123  1.00  0.00    -0.993 N 
ATOM     22  H13 MOL     1      -6.959   6.837 -18.214  1.00  0.00     0.395 HD
ATOM     23  H14 MOL     1      -7.339   8.408 -17.471  1.00  0.00     0.440 HD
ATOM     24  O0D MOL     1      -5.641   9.548 -18.846  1.00  0.00    -0.614 OA
ENDBRANCH  19  20
ENDBRANCH   4  19
BRANCH   1  25
ATOM     25  C01 MOL     1      -5.866   9.997 -25.355  1.00  0.00    -0.066 C 
ATOM     26  C00 MOL     1      -6.767  11.318 -25.224  1.00  0.00    -0.126 C 
ENDBRANCH   1  25
BRANCH   2  27
ATOM     27  C04 MOL     1      -7.936   7.997 -24.161  1.00  0.00    -0.266 C 
BRANCH  27  28
ATOM     28  C05 MOL     1      -7.762   7.329 -25.502  1.00  0.00     0.870 C 
ATOM     29  O06 MOL     1      -7.130   6.306 -25.681  1.00  0.00    -0.820 OA
ATOM     30  O07 MOL     1      -8.386   7.830 -26.498  1.00  0.00    -0.676 OA
ENDBRANCH  27  28
ENDBRANCH   2  27
TORSDOF 9
ENDMDL
MODEL 11
REMARK VINA RESULT:      -5.5      2.523      3.310
REMARK  9 active torsions:
REMARK  status: ('A' for Active; 'I' for Inactive)
REMARK    1  A    between atoms: C01_2  and  C02_3 
REMARK    2  A    between atoms: C03_4  and  C04_5 
REMARK    3  A    between atoms: C04_5  and  C05_6 
REMARK    4  A    between atoms: C09_10  and  C0A_11 
REMARK    5  A    between atoms: C0A_11  and  C0B_12 
REMARK       I    between atoms: C0B_12  and  N0C_13 
REMARK    6  A    between atoms: C0E_15  and  C0F_16 
REMARK    7  A    between atoms: C0F_16  and  C0G_17 
REMARK    8  A    between atoms: C0N_23  and  C0O_24 
REMARK    9  A    between atoms: C0O_24  and  N0P_25 
ROOT
ATOM      1  C02 MOL     1       2.115   5.840  -3.679  1.00  0.00    -0.044 C 
ATOM      2  C03 MOL     1       0.767   5.533  -3.907  1.00  0.00     0.129 C 
ATOM      3  C08 MOL     1      -0.317   6.390  -3.460  1.00  0.00    -0.316 C 
ATOM      4  C09 MOL     1       0.006   7.618  -2.913  1.00  0.00     0.109 C 
ATOM      5  C0E MOL     1       1.292   7.950  -2.600  1.00  0.00    -0.064 C 
ATOM      6  C0N MOL     1       2.344   7.127  -3.068  1.00  0.00    -0.120 C 
ENDROOT
BRANCH   5   7
ATOM      7  C0F MOL     1       1.560   9.270  -1.894  1.00  0.00     0.047 C 
BRANCH   7   8
ATOM      8  C0G MOL     1       2.366  10.336  -2.586  1.00  0.00     0.171 C 
ATOM      9  C0M MOL     1       2.328  10.494  -3.986  1.00  0.00    -0.195 C 
ATOM     10  C0K MOL     1       3.105  11.492  -4.629  1.00  0.00    -0.062 C 
ATOM     11  C0J MOL     1       4.067  12.234  -3.938  1.00  0.00    -0.135 C 
ATOM     12  C0I MOL     1       4.106  12.026  -2.527  1.00  0.00    -0.071 C 
ATOM     13  C0H MOL     1       3.239  11.140  -1.923  1.00  0.00    -0.152 C 
ENDBRANCH   7   8
ENDBRANCH   5   7
BRANCH   6  14
ATOM     14  C0O MOL     1       3.839   7.502  -2.807  1.00  0.00     0.092 C 
BRANCH  14  15
ATOM     15  N0P MOL     1       4.397   7.142  -1.464  1.00  0.00    -0.153 N 
ATOM     16  H0Q MOL     1       3.661   7.086  -0.779  1.00  0.00     0.257 HD
ATOM     17  H0R MOL     1       4.739   6.187  -1.522  1.00  0.00     0.244 HD
ATOM     18  H0S MOL     1       5.093   7.779  -1.104  1.00  0.00     0.246 HD
ENDBRANCH  14  15
ENDBRANCH   6  14
BRANCH   4  19
ATOM     19  C0A MOL     1      -1.170   8.606  -2.735  1.00  0.00    -0.219 C 
BRANCH  19  20
ATOM     20  C0B MOL     1      -1.791   9.146  -4.065  1.00  0.00     0.819 C 
ATOM     21  N0C MOL     1      -1.033   9.885  -4.815  1.00  0.00    -0.993 N 
ATOM     22  H13 MOL     1      -0.076  10.013  -4.494  1.00  0.00     0.395 HD
ATOM     23  H14 MOL     1      -1.403  10.327  -5.636  1.00  0.00     0.440 HD
ATOM     24  O0D MOL     1      -2.908   8.807  -4.412  1.00  0.00    -0.614 OA
ENDBRANCH  19  20
ENDBRANCH   4  19
BRANCH   1  25
ATOM     25  C01 MOL     1       3.278   4.917  -4.102  1.00  0.00    -0.066 C 
ATOM     26  C00 MOL     1       3.734   5.176  -5.618  1.00  0.00    -0.126 C 
ENDBRANCH   1  25
BRANCH   2  27
ATOM     27  C04 MOL     1       0.264   4.249  -4.528  1.00  0.00    -0.266 C 
BRANCH  27  28
ATOM     28  C05 MOL     1       0.116   4.275  -6.029  1.00  0.00     0.870 C 
ATOM     29  O06 MOL     1       0.400   5.227  -6.729  1.00  0.00    -0.820 OA
ATOM     30  O07 MOL     1      -0.259   3.197  -6.605  1.00  0.00    -0.676 OA
ENDBRANCH  27  28
ENDBRANCH   2  27
TORSDOF 9
ENDMDL
MODEL 12
REMARK VINA RESULT:      -5.5     19.364     22.337
REMARK  9 active torsions:
REMARK  status: ('A' for Active; 'I' for Inactive)
REMARK    1  A    between atoms: C01_2  and  C02_3 
REMARK    2  A    between atoms: C03_4  and  C04_5 
REMARK    3  A    between atoms: C04_5  and  C05_6 
REMARK    4  A    between atoms: C09_10  and  C0A_11 
REMARK    5  A    between atoms: C0A_11  and  C0B_12 
REMARK       I    between atoms: C0B_12  and  N0C_13 
REMARK    6  A    between atoms: C0E_15  and  C0F_16 
REMARK    7  A    between atoms: C0F_16  and  C0G_17 
REMARK    8  A    between atoms: C0N_23  and  C0O_24 
REMARK    9  A    between atoms: C0O_24  and  N0P_25 
ROOT
ATOM      1  C02 MOL     1      -8.078   2.953  14.536  1.00  0.00    -0.044 C 
ATOM      2  C03 MOL     1      -7.394   3.187  13.335  1.00  0.00     0.129 C 
ATOM      3  C08 MOL     1      -7.477   2.285  12.199  1.00  0.00    -0.316 C 
ATOM      4  C09 MOL     1      -8.374   1.235  12.265  1.00  0.00     0.109 C 
ATOM      5  C0E MOL     1      -9.017   0.910  13.423  1.00  0.00    -0.064 C 
ATOM      6  C0N MOL     1      -8.958   1.810  14.514  1.00  0.00    -0.120 C 
ENDROOT
BRANCH   5   7
ATOM      7  C0F MOL     1      -9.899  -0.329  13.453  1.00  0.00     0.047 C 
BRANCH   7   8
ATOM      8  C0G MOL     1     -11.371  -0.203  13.165  1.00  0.00     0.171 C 
ATOM      9  C0M MOL     1     -11.911   0.965  12.587  1.00  0.00    -0.195 C 
ATOM     10  C0K MOL     1     -13.303   1.078  12.337  1.00  0.00    -0.062 C 
ATOM     11  C0J MOL     1     -14.215   0.130  12.808  1.00  0.00    -0.135 C 
ATOM     12  C0I MOL     1     -13.640  -1.024  13.421  1.00  0.00    -0.071 C 
ATOM     13  C0H MOL     1     -12.271  -1.156  13.525  1.00  0.00    -0.152 C 
ENDBRANCH   7   8
ENDBRANCH   5   7
BRANCH   6  14
ATOM     14  C0O MOL     1      -9.741   1.526  15.837  1.00  0.00     0.092 C 
BRANCH  14  15
ATOM     15  N0P MOL     1     -11.117   2.110  15.941  1.00  0.00    -0.153 N 
ATOM     16  H0Q MOL     1     -11.105   3.088  15.699  1.00  0.00     0.257 HD
ATOM     17  H0R MOL     1     -11.682   1.691  15.209  1.00  0.00     0.244 HD
ATOM     18  H0S MOL     1     -11.547   2.033  16.852  1.00  0.00     0.246 HD
ENDBRANCH  14  15
ENDBRANCH   6  14
BRANCH   4  19
ATOM     19  C0A MOL     1      -8.641   0.495  10.934  1.00  0.00    -0.219 C 
BRANCH  19  20
ATOM     20  C0B MOL     1      -7.400   0.353   9.993  1.00  0.00     0.819 C 
ATOM     21  N0C MOL     1      -7.320   1.173   8.991  1.00  0.00    -0.993 N 
ATOM     22  H13 MOL     1      -8.053   1.877   8.930  1.00  0.00     0.395 HD
ATOM     23  H14 MOL     1      -6.592   1.075   8.308  1.00  0.00     0.440 HD
ATOM     24  O0D MOL     1      -6.513  -0.440  10.251  1.00  0.00    -0.614 OA
ENDBRANCH  19  20
ENDBRANCH   4  19
BRANCH   1  25
ATOM     25  C01 MOL     1      -7.962   3.873  15.771  1.00  0.00    -0.066 C 
ATOM     26  C00 MOL     1      -8.941   5.139  15.674  1.00  0.00    -0.126 C 
ENDBRANCH   1  25
BRANCH   2  27
ATOM     27  C04 MOL     1      -6.413   4.313  13.102  1.00  0.00    -0.266 C 
BRANCH  27  28
ATOM     28  C05 MOL     1      -4.995   4.032  13.533  1.00  0.00     0.870 C 
ATOM     29  O06 MOL     1      -4.529   4.357  14.608  1.00  0.00    -0.820 OA
ATOM     30  O07 MOL     1      -4.264   3.340  12.747  1.00  0.00    -0.676 OA
ENDBRANCH  27  28
ENDBRANCH   2  27
TORSDOF 9
ENDMDL
MODEL 13
REMARK VINA RESULT:      -5.5      3.126      6.454
REMARK  9 active torsions:
REMARK  status: ('A' for Active; 'I' for Inactive)
REMARK    1  A    between atoms: C01_2  and  C02_3 
REMARK    2  A    between atoms: C03_4  and  C04_5 
REMARK    3  A    between atoms: C04_5  and  C05_6 
REMARK    4  A    between atoms: C09_10  and  C0A_11 
REMARK    5  A    between atoms: C0A_11  and  C0B_12 
REMARK       I    between atoms: C0B_12  and  N0C_13 
REMARK    6  A    between atoms: C0E_15  and  C0F_16 
REMARK    7  A    between atoms: C0F_16  and  C0G_17 
REMARK    8  A    between atoms: C0N_23  and  C0O_24 
REMARK    9  A    between atoms: C0O_24  and  N0P_25 
ROOT
ATOM      1  C02 MOL     1       2.816   8.069  -2.452  1.00  0.00    -0.044 C 
ATOM      2  C03 MOL     1       1.784   8.994  -2.241  1.00  0.00     0.129 C 
ATOM      3  C08 MOL     1       0.418   8.752  -2.671  1.00  0.00    -0.316 C 
ATOM      4  C09 MOL     1       0.106   7.506  -3.182  1.00  0.00     0.109 C 
ATOM      5  C0E MOL     1       1.071   6.587  -3.478  1.00  0.00    -0.064 C 
ATOM      6  C0N MOL     1       2.393   6.816  -3.026  1.00  0.00    -0.120 C 
ENDROOT
BRANCH   5   7
ATOM      7  C0F MOL     1       0.666   5.283  -4.147  1.00  0.00     0.047 C 
BRANCH   7   8
ATOM      8  C0G MOL     1       0.858   5.114  -5.629  1.00  0.00     0.171 C 
ATOM      9  C0M MOL     1       0.693   3.861  -6.255  1.00  0.00    -0.195 C 
ATOM     10  C0K MOL     1       0.894   3.710  -7.651  1.00  0.00    -0.062 C 
ATOM     11  C0J MOL     1       1.433   4.737  -8.432  1.00  0.00    -0.135 C 
ATOM     12  C0I MOL     1       1.622   5.984  -7.762  1.00  0.00    -0.071 C 
ATOM     13  C0H MOL     1       1.288   6.124  -6.432  1.00  0.00    -0.152 C 
ENDBRANCH   7   8
ENDBRANCH   5   7
BRANCH   6  14
ATOM     14  C0O MOL     1       3.521   5.760  -3.268  1.00  0.00     0.092 C 
BRANCH  14  15
ATOM     15  N0P MOL     1       4.256   5.849  -4.570  1.00  0.00    -0.153 N 
ATOM     16  H0Q MOL     1       4.235   4.964  -5.050  1.00  0.00     0.257 HD
ATOM     17  H0R MOL     1       3.722   6.462  -5.180  1.00  0.00     0.244 HD
ATOM     18  H0S MOL     1       5.224   6.127  -4.498  1.00  0.00     0.246 HD
ENDBRANCH  14  15
ENDBRANCH   6  14
BRANCH   4  19
ATOM     19  C0A MOL     1      -1.402   7.202  -3.340  1.00  0.00    -0.219 C 
BRANCH  19  20
ATOM     20  C0B MOL     1      -2.132   8.027  -4.449  1.00  0.00     0.819 C 
ATOM     21  N0C MOL     1      -2.056   7.581  -5.666  1.00  0.00    -0.993 N 
ATOM     22  H13 MOL     1      -1.564   6.700  -5.788  1.00  0.00     0.395 HD
ATOM     23  H14 MOL     1      -2.434   8.113  -6.428  1.00  0.00     0.440 HD
ATOM     24  O0D MOL     1      -2.812   8.994  -4.158  1.00  0.00    -0.614 OA
ENDBRANCH  19  20
ENDBRANCH   4  19
BRANCH   1  25
ATOM     25  C01 MOL     1       4.284   8.330  -2.047  1.00  0.00    -0.066 C 
ATOM     26  C00 MOL     1       5.084   9.146  -3.173  1.00  0.00    -0.126 C 
ENDBRANCH   1  25
BRANCH   2  27
ATOM     27  C04 MOL     1       1.966  10.377  -1.658  1.00  0.00    -0.266 C 
BRANCH  27  28
ATOM     28  C05 MOL     1       1.144  10.671  -0.429  1.00  0.00     0.870 C 
ATOM     29  O06 MOL     1       0.244  11.488  -0.386  1.00  0.00    -0.820 OA
ATOM     30  O07 MOL     1       1.358   9.960   0.611  1.00  0.00    -0.676 OA
ENDBRANCH  27  28
ENDBRANCH   2  27
TORSDOF 9
ENDMDL
MODEL 14
REMARK VINA RESULT:      -5.5     13.585     17.218
REMARK  9 active torsions:
REMARK  status: ('A' for Active; 'I' for Inactive)
REMARK    1  A    between atoms: C01_2  and  C02_3 
REMARK    2  A    between atoms: C03_4  and  C04_5 
REMARK    3  A    between atoms: C04_5  and  C05_6 
REMARK    4  A    between atoms: C09_10  and  C0A_11 
REMARK    5  A    between atoms: C0A_11  and  C0B_12 
REMARK       I    between atoms: C0B_12  and  N0C_13 
REMARK    6  A    between atoms: C0E_15  and  C0F_16 
REMARK    7  A    between atoms: C0F_16  and  C0G_17 
REMARK    8  A    between atoms: C0N_23  and  C0O_24 
REMARK    9  A    between atoms: C0O_24  and  N0P_25 
ROOT
ATOM      1  C02 MOL     1      -3.363   6.115 -19.688  1.00  0.00    -0.044 C 
ATOM      2  C03 MOL     1      -2.064   6.263 -19.185  1.00  0.00     0.129 C 
ATOM      3  C08 MOL     1      -1.194   7.360 -19.575  1.00  0.00    -0.316 C 
ATOM      4  C09 MOL     1      -1.725   8.363 -20.364  1.00  0.00     0.109 C 
ATOM      5  C0E MOL     1      -2.955   8.249 -20.943  1.00  0.00    -0.064 C 
ATOM      6  C0N MOL     1      -3.808   7.197 -20.533  1.00  0.00    -0.120 C 
ENDROOT
BRANCH   5   7
ATOM      7  C0F MOL     1      -3.426   9.339 -21.892  1.00  0.00     0.047 C 
BRANCH   7   8
ATOM      8  C0G MOL     1      -3.349   9.118 -23.379  1.00  0.00     0.171 C 
ATOM      9  C0M MOL     1      -2.109   9.034 -24.046  1.00  0.00    -0.195 C 
ATOM     10  C0K MOL     1      -2.049   8.843 -25.451  1.00  0.00    -0.062 C 
ATOM     11  C0J MOL     1      -3.192   8.910 -26.252  1.00  0.00    -0.135 C 
ATOM     12  C0I MOL     1      -4.429   9.031 -25.550  1.00  0.00    -0.071 C 
ATOM     13  C0H MOL     1      -4.452   9.081 -24.172  1.00  0.00    -0.152 C 
ENDBRANCH   7   8
ENDBRANCH   5   7
BRANCH   6  14
ATOM     14  C0O MOL     1      -5.258   7.064 -21.104  1.00  0.00     0.092 C 
BRANCH  14  15
ATOM     15  N0P MOL     1      -6.324   7.864 -20.422  1.00  0.00    -0.153 N 
ATOM     16  H0Q MOL     1      -7.207   7.381 -20.460  1.00  0.00     0.257 HD
ATOM     17  H0R MOL     1      -6.106   7.880 -19.430  1.00  0.00     0.244 HD
ATOM     18  H0S MOL     1      -6.473   8.789 -20.798  1.00  0.00     0.246 HD
ENDBRANCH  14  15
ENDBRANCH   6  14
BRANCH   4  19
ATOM     19  C0A MOL     1      -0.863   9.640 -20.498  1.00  0.00    -0.219 C 
BRANCH  19  20
ATOM     20  C0B MOL     1       0.338   9.737 -19.502  1.00  0.00     0.819 C 
ATOM     21  N0C MOL     1       0.134  10.370 -18.387  1.00  0.00    -0.993 N 
ATOM     22  H13 MOL     1      -0.812  10.711 -18.235  1.00  0.00     0.395 HD
ATOM     23  H14 MOL     1       0.890  10.536 -17.749  1.00  0.00     0.440 HD
ATOM     24  O0D MOL     1       1.387   9.165 -19.736  1.00  0.00    -0.614 OA
ENDBRANCH  19  20
ENDBRANCH   4  19
BRANCH   1  25
ATOM     25  C01 MOL     1      -4.283   4.929 -19.324  1.00  0.00    -0.066 C 
ATOM     26  C00 MOL     1      -5.003   5.136 -17.906  1.00  0.00    -0.126 C 
ENDBRANCH   1  25
BRANCH   2  27
ATOM     27  C04 MOL     1      -1.365   5.270 -18.284  1.00  0.00    -0.266 C 
BRANCH  27  28
ATOM     28  C05 MOL     1      -0.026   5.713 -17.752  1.00  0.00     0.870 C 
ATOM     29  O06 MOL     1       0.121   6.494 -16.832  1.00  0.00    -0.820 OA
ATOM     30  O07 MOL     1       1.018   5.172 -18.251  1.00  0.00    -0.676 OA
ENDBRANCH  27  28
ENDBRANCH   2  27
TORSDOF 9
ENDMDL
MODEL 15
REMARK VINA RESULT:      -5.3      3.602      6.606
REMARK  9 active torsions:
REMARK  status: ('A' for Active; 'I' for Inactive)
REMARK    1  A    between atoms: C01_2  and  C02_3 
REMARK    2  A    between atoms: C03_4  and  C04_5 
REMARK    3  A    between atoms: C04_5  and  C05_6 
REMARK    4  A    between atoms: C09_10  and  C0A_11 
REMARK    5  A    between atoms: C0A_11  and  C0B_12 
REMARK       I    between atoms: C0B_12  and  N0C_13 
REMARK    6  A    between atoms: C0E_15  and  C0F_16 
REMARK    7  A    between atoms: C0F_16  and  C0G_17 
REMARK    8  A    between atoms: C0N_23  and  C0O_24 
REMARK    9  A    between atoms: C0O_24  and  N0P_25 
ROOT
ATOM      1  C02 MOL     1       1.177  10.954  -1.818  1.00  0.00    -0.044 C 
ATOM      2  C03 MOL     1       0.293  10.914  -2.905  1.00  0.00     0.129 C 
ATOM      3  C08 MOL     1       0.728  10.597  -4.255  1.00  0.00    -0.316 C 
ATOM      4  C09 MOL     1       2.035  10.187  -4.439  1.00  0.00     0.109 C 
ATOM      5  C0E MOL     1       2.963  10.270  -3.441  1.00  0.00    -0.064 C 
ATOM      6  C0N MOL     1       2.526  10.546  -2.124  1.00  0.00    -0.120 C 
ENDROOT
BRANCH   5   7
ATOM      7  C0F MOL     1       4.408   9.911  -3.749  1.00  0.00     0.047 C 
BRANCH   7   8
ATOM      8  C0G MOL     1       5.219  10.799  -4.654  1.00  0.00     0.171 C 
ATOM      9  C0M MOL     1       5.148  12.204  -4.564  1.00  0.00    -0.195 C 
ATOM     10  C0K MOL     1       5.905  13.031  -5.434  1.00  0.00    -0.062 C 
ATOM     11  C0J MOL     1       6.606  12.505  -6.523  1.00  0.00    -0.135 C 
ATOM     12  C0I MOL     1       6.631  11.080  -6.608  1.00  0.00    -0.071 C 
ATOM     13  C0H MOL     1       5.990  10.309  -5.662  1.00  0.00    -0.152 C 
ENDBRANCH   7   8
ENDBRANCH   5   7
BRANCH   6  14
ATOM     14  C0O MOL     1       3.535  10.573  -0.929  1.00  0.00     0.092 C 
BRANCH  14  15
ATOM     15  N0P MOL     1       3.726   9.289  -0.183  1.00  0.00    -0.153 N 
ATOM     16  H0Q MOL     1       4.688   9.180   0.093  1.00  0.00     0.257 HD
ATOM     17  H0R MOL     1       3.234   9.374   0.701  1.00  0.00     0.244 HD
ATOM     18  H0S MOL     1       3.465   8.455  -0.690  1.00  0.00     0.246 HD
ENDBRANCH  14  15
ENDBRANCH   6  14
BRANCH   4  19
ATOM     19  C0A MOL     1       2.360   9.580  -5.823  1.00  0.00    -0.219 C 
BRANCH  19  20
ATOM     20  C0B MOL     1       2.185  10.554  -7.033  1.00  0.00     0.819 C 
ATOM     21  N0C MOL     1       1.256  10.269  -7.894  1.00  0.00    -0.993 N 
ATOM     22  H13 MOL     1       0.684   9.456  -7.680  1.00  0.00     0.395 HD
ATOM     23  H14 MOL     1       1.154  10.811  -8.732  1.00  0.00     0.440 HD
ATOM     24  O0D MOL     1       2.840  11.578  -7.106  1.00  0.00    -0.614 OA
ENDBRANCH  19  20
ENDBRANCH   4  19
BRANCH   1  25
ATOM     25  C01 MOL     1       0.743  11.338  -0.386  1.00  0.00    -0.066 C 
ATOM     26  C00 MOL     1       0.776  12.924  -0.150  1.00  0.00    -0.126 C 
ENDBRANCH   1  25
BRANCH   2  27
ATOM     27  C04 MOL     1      -1.168  11.296  -2.848  1.00  0.00    -0.266 C 
BRANCH  27  28
ATOM     28  C05 MOL     1      -2.134  10.141  -2.755  1.00  0.00     0.870 C 
ATOM     29  O06 MOL     1      -2.262   9.433  -1.776  1.00  0.00    -0.820 OA
ATOM     30  O07 MOL     1      -2.920   9.946  -3.743  1.00  0.00    -0.676 OA
ENDBRANCH  27  28
ENDBRANCH   2  27
TORSDOF 9
ENDMDL
MODEL 16
REMARK VINA RESULT:      -5.2     21.070     23.587
REMARK  9 active torsions:
REMARK  status: ('A' for Active; 'I' for Inactive)
REMARK    1  A    between atoms: C01_2  and  C02_3 
REMARK    2  A    between atoms: C03_4  and  C04_5 
REMARK    3  A    between atoms: C04_5  and  C05_6 
REMARK    4  A    between atoms: C09_10  and  C0A_11 
REMARK    5  A    between atoms: C0A_11  and  C0B_12 
REMARK       I    between atoms: C0B_12  and  N0C_13 
REMARK    6  A    between atoms: C0E_15  and  C0F_16 
REMARK    7  A    between atoms: C0F_16  and  C0G_17 
REMARK    8  A    between atoms: C0N_23  and  C0O_24 
REMARK    9  A    between atoms: C0O_24  and  N0P_25 
ROOT
ATOM      1  C02 MOL     1      -8.174   2.007  13.939  1.00  0.00    -0.044 C 
ATOM      2  C03 MOL     1      -8.222   1.322  12.717  1.00  0.00     0.129 C 
ATOM      3  C08 MOL     1      -9.108   0.195  12.487  1.00  0.00    -0.316 C 
ATOM      4  C09 MOL     1     -10.032  -0.119  13.466  1.00  0.00     0.109 C 
ATOM      5  C0E MOL     1      -9.994   0.458  14.702  1.00  0.00    -0.064 C 
ATOM      6  C0N MOL     1      -9.152   1.577  14.909  1.00  0.00    -0.120 C 
ENDROOT
BRANCH   5   7
ATOM      7  C0F MOL     1     -10.967  -0.021  15.768  1.00  0.00     0.047 C 
BRANCH   7   8
ATOM      8  C0G MOL     1     -10.541  -1.083  16.744  1.00  0.00     0.171 C 
ATOM      9  C0M MOL     1     -10.403  -2.431  16.351  1.00  0.00    -0.195 C 
ATOM     10  C0K MOL     1     -10.017  -3.427  17.284  1.00  0.00    -0.062 C 
ATOM     11  C0J MOL     1      -9.932  -3.159  18.654  1.00  0.00    -0.135 C 
ATOM     12  C0I MOL     1     -10.112  -1.793  19.025  1.00  0.00    -0.071 C 
ATOM     13  C0H MOL     1     -10.355  -0.831  18.067  1.00  0.00    -0.152 C 
ENDBRANCH   7   8
ENDBRANCH   5   7
BRANCH   6  14
ATOM     14  C0O MOL     1      -9.128   2.326  16.281  1.00  0.00     0.092 C 
BRANCH  14  15
ATOM     15  N0P MOL     1     -10.087   3.466  16.440  1.00  0.00    -0.153 N 
ATOM     16  H0Q MOL     1      -9.599   4.346  16.407  1.00  0.00     0.257 HD
ATOM     17  H0R MOL     1     -10.674   3.488  15.612  1.00  0.00     0.244 HD
ATOM     18  H0S MOL     1     -10.627   3.455  17.295  1.00  0.00     0.246 HD
ENDBRANCH  14  15
ENDBRANCH   6  14
BRANCH   4  19
ATOM     19  C0A MOL     1     -11.137  -1.118  13.053  1.00  0.00    -0.219 C 
BRANCH  19  20
ATOM     20  C0B MOL     1     -12.550  -0.487  12.825  1.00  0.00     0.819 C 
ATOM     21  N0C MOL     1     -13.580  -1.243  13.051  1.00  0.00    -0.993 N 
ATOM     22  H13 MOL     1     -13.380  -2.175  13.406  1.00  0.00     0.395 HD
ATOM     23  H14 MOL     1     -14.506  -0.919  12.842  1.00  0.00     0.440 HD
ATOM     24  O0D MOL     1     -12.664   0.690  12.532  1.00  0.00    -0.614 OA
ENDBRANCH  19  20
ENDBRANCH   4  19
BRANCH   1  25
ATOM     25  C01 MOL     1      -7.202   3.174  14.220  1.00  0.00    -0.066 C 
ATOM     26  C00 MOL     1      -7.770   4.574  13.680  1.00  0.00    -0.126 C 
ENDBRANCH   1  25
BRANCH   2  27
ATOM     27  C04 MOL     1      -7.304   1.580  11.544  1.00  0.00    -0.266 C 
BRANCH  27  28
ATOM     28  C05 MOL     1      -7.393   0.575  10.423  1.00  0.00     0.870 C 
ATOM     29  O06 MOL     1      -6.628  -0.359  10.279  1.00  0.00    -0.820 OA
ATOM     30  O07 MOL     1      -8.383   0.668   9.621  1.00  0.00    -0.676 OA
ENDBRANCH  27  28
ENDBRANCH   2  27
TORSDOF 9
ENDMDL
MODEL 17
REMARK VINA RESULT:      -5.2      9.076     11.736
REMARK  9 active torsions:
REMARK  status: ('A' for Active; 'I' for Inactive)
REMARK    1  A    between atoms: C01_2  and  C02_3 
REMARK    2  A    between atoms: C03_4  and  C04_5 
REMARK    3  A    between atoms: C04_5  and  C05_6 
REMARK    4  A    between atoms: C09_10  and  C0A_11 
REMARK    5  A    between atoms: C0A_11  and  C0B_12 
REMARK       I    between atoms: C0B_12  and  N0C_13 
REMARK    6  A    between atoms: C0E_15  and  C0F_16 
REMARK    7  A    between atoms: C0F_16  and  C0G_17 
REMARK    8  A    between atoms: C0N_23  and  C0O_24 
REMARK    9  A    between atoms: C0O_24  and  N0P_25 
ROOT
ATOM      1  C02 MOL     1       0.261  11.424   3.831  1.00  0.00    -0.044 C 
ATOM      2  C03 MOL     1      -0.269  12.391   2.966  1.00  0.00     0.129 C 
ATOM      3  C08 MOL     1      -1.344  13.286   3.357  1.00  0.00    -0.316 C 
ATOM      4  C09 MOL     1      -1.759  13.269   4.676  1.00  0.00     0.109 C 
ATOM      5  C0E MOL     1      -1.337  12.310   5.550  1.00  0.00    -0.064 C 
ATOM      6  C0N MOL     1      -0.267  11.464   5.173  1.00  0.00    -0.120 C 
ENDROOT
BRANCH   5   7
ATOM      7  C0F MOL     1      -1.925  12.283   6.952  1.00  0.00     0.047 C 
BRANCH   7   8
ATOM      8  C0G MOL     1      -2.831  11.152   7.359  1.00  0.00     0.171 C 
ATOM      9  C0M MOL     1      -2.705  10.524   8.616  1.00  0.00    -0.195 C 
ATOM     10  C0K MOL     1      -3.554   9.447   8.982  1.00  0.00    -0.062 C 
ATOM     11  C0J MOL     1      -4.419   8.848   8.062  1.00  0.00    -0.135 C 
ATOM     12  C0I MOL     1      -4.498   9.484   6.787  1.00  0.00    -0.071 C 
ATOM     13  C0H MOL     1      -3.751  10.612   6.517  1.00  0.00    -0.152 C 
ENDBRANCH   7   8
ENDBRANCH   5   7
BRANCH   6  14
ATOM     14  C0O MOL     1       0.309  10.401   6.165  1.00  0.00     0.092 C 
BRANCH  14  15
ATOM     15  N0P MOL     1       1.427  10.850   7.055  1.00  0.00    -0.153 N 
ATOM     16  H0Q MOL     1       1.683  11.801   6.849  1.00  0.00     0.257 HD
ATOM     17  H0R MOL     1       1.061  10.901   8.001  1.00  0.00     0.244 HD
ATOM     18  H0S MOL     1       2.269  10.295   6.997  1.00  0.00     0.246 HD
ENDBRANCH  14  15
ENDBRANCH   6  14
BRANCH   4  19
ATOM     19  C0A MOL     1      -2.680  14.433   5.106  1.00  0.00    -0.219 C 
BRANCH  19  20
ATOM     20  C0B MOL     1      -4.184  14.270   4.711  1.00  0.00     0.819 C 
ATOM     21  N0C MOL     1      -5.005  13.896   5.644  1.00  0.00    -0.993 N 
ATOM     22  H13 MOL     1      -4.604  13.786   6.573  1.00  0.00     0.395 HD
ATOM     23  H14 MOL     1      -5.964  13.695   5.430  1.00  0.00     0.440 HD
ATOM     24  O0D MOL     1      -4.569  14.570   3.595  1.00  0.00    -0.614 OA
ENDBRANCH  19  20
ENDBRANCH   4  19
BRANCH   1  25
ATOM     25  C01 MOL     1       1.368  10.430   3.416  1.00  0.00    -0.066 C 
ATOM     26  C00 MOL     1       2.834  11.063   3.570  1.00  0.00    -0.126 C 
ENDBRANCH   1  25
BRANCH   2  27
ATOM     27  C04 MOL     1       0.114  12.555   1.512  1.00  0.00    -0.266 C 
BRANCH  27  28
ATOM     28  C05 MOL     1       1.193  13.573   1.241  1.00  0.00     0.870 C 
ATOM     29  O06 MOL     1       1.562  13.900   0.130  1.00  0.00    -0.820 OA
ATOM     30  O07 MOL     1       1.695  14.185   2.243  1.00  0.00    -0.676 OA
ENDBRANCH  27  28
ENDBRANCH   2  27
TORSDOF 9
ENDMDL
MODEL 18
REMARK VINA RESULT:      -5.2     16.320     20.033
REMARK  9 active torsions:
REMARK  status: ('A' for Active; 'I' for Inactive)
REMARK    1  A    between atoms: C01_2  and  C02_3 
REMARK    2  A    between atoms: C03_4  and  C04_5 
REMARK    3  A    between atoms: C04_5  and  C05_6 
REMARK    4  A    between atoms: C09_10  and  C0A_11 
REMARK    5  A    between atoms: C0A_11  and  C0B_12 
REMARK       I    between atoms: C0B_12  and  N0C_13 
REMARK    6  A    between atoms: C0E_15  and  C0F_16 
REMARK    7  A    between atoms: C0F_16  and  C0G_17 
REMARK    8  A    between atoms: C0N_23  and  C0O_24 
REMARK    9  A    between atoms: C0O_24  and  N0P_25 
ROOT
ATOM      1  C02 MOL     1      -4.568   7.890 -21.297  1.00  0.00    -0.044 C 
ATOM      2  C03 MOL     1      -3.253   8.364 -21.196  1.00  0.00     0.129 C 
ATOM      3  C08 MOL     1      -2.592   9.072 -22.279  1.00  0.00    -0.316 C 
ATOM      4  C09 MOL     1      -3.340   9.407 -23.392  1.00  0.00     0.109 C 
ATOM      5  C0E MOL     1      -4.599   8.919 -23.585  1.00  0.00    -0.064 C 
ATOM      6  C0N MOL     1      -5.249   8.259 -22.515  1.00  0.00    -0.120 C 
ENDROOT
BRANCH   5   7
ATOM      7  C0F MOL     1      -5.319   9.233 -24.888  1.00  0.00     0.047 C 
BRANCH   7   8
ATOM      8  C0G MOL     1      -5.272   8.246 -26.022  1.00  0.00     0.171 C 
ATOM      9  C0M MOL     1      -6.398   7.472 -26.372  1.00  0.00    -0.195 C 
ATOM     10  C0K MOL     1      -6.337   6.532 -27.433  1.00  0.00    -0.062 C 
ATOM     11  C0J MOL     1      -5.129   6.201 -28.053  1.00  0.00    -0.135 C 
ATOM     12  C0I MOL     1      -3.999   6.977 -27.653  1.00  0.00    -0.071 C 
ATOM     13  C0H MOL     1      -4.131   7.975 -26.710  1.00  0.00    -0.152 C 
ENDBRANCH   7   8
ENDBRANCH   5   7
BRANCH   6  14
ATOM     14  C0O MOL     1      -6.720   7.749 -22.655  1.00  0.00     0.092 C 
BRANCH  14  15
ATOM     15  N0P MOL     1      -6.900   6.310 -23.028  1.00  0.00    -0.153 N 
ATOM     16  H0Q MOL     1      -7.450   5.831 -22.334  1.00  0.00     0.257 HD
ATOM     17  H0R MOL     1      -7.486   6.281 -23.857  1.00  0.00     0.244 HD
ATOM     18  H0S MOL     1      -6.043   5.787 -23.144  1.00  0.00     0.246 HD
ENDBRANCH  14  15
ENDBRANCH   6  14
BRANCH   4  19
ATOM     19  C0A MOL     1      -2.682  10.409 -24.368  1.00  0.00    -0.219 C 
BRANCH  19  20
ATOM     20  C0B MOL     1      -2.910  11.917 -24.023  1.00  0.00     0.819 C 
ATOM     21  N0C MOL     1      -3.896  12.518 -24.616  1.00  0.00    -0.993 N 
ATOM     22  H13 MOL     1      -4.471  11.940 -25.223  1.00  0.00     0.395 HD
ATOM     23  H14 MOL     1      -4.037  13.505 -24.497  1.00  0.00     0.440 HD
ATOM     24  O0D MOL     1      -2.238  12.467 -23.169  1.00  0.00    -0.614 OA
ENDBRANCH  19  20
ENDBRANCH   4  19
BRANCH   1  25
ATOM     25  C01 MOL     1      -5.269   7.091 -20.177  1.00  0.00    -0.066 C 
ATOM     26  C00 MOL     1      -6.023   8.048 -19.134  1.00  0.00    -0.126 C 
ENDBRANCH   1  25
BRANCH   2  27
ATOM     27  C04 MOL     1      -2.329   8.112 -20.027  1.00  0.00    -0.266 C 
BRANCH  27  28
ATOM     28  C05 MOL     1      -1.721   6.732 -19.972  1.00  0.00     0.870 C 
ATOM     29  O06 MOL     1      -1.354   6.106 -20.947  1.00  0.00    -0.820 OA
ATOM     30  O07 MOL     1      -1.509   6.225 -18.819  1.00  0.00    -0.676 OA
ENDBRANCH  27  28
ENDBRANCH   2  27
TORSDOF 9
ENDMDL
MODEL 19
REMARK VINA RESULT:      -5.0     13.136     17.136
REMARK  9 active torsions:
REMARK  status: ('A' for Active; 'I' for Inactive)
REMARK    1  A    between atoms: C01_2  and  C02_3 
REMARK    2  A    between atoms: C03_4  and  C04_5 
REMARK    3  A    between atoms: C04_5  and  C05_6 
REMARK    4  A    between atoms: C09_10  and  C0A_11 
REMARK    5  A    between atoms: C0A_11  and  C0B_12 
REMARK       I    between atoms: C0B_12  and  N0C_13 
REMARK    6  A    between atoms: C0E_15  and  C0F_16 
REMARK    7  A    between atoms: C0F_16  and  C0G_17 
REMARK    8  A    between atoms: C0N_23  and  C0O_24 
REMARK    9  A    between atoms: C0O_24  and  N0P_25 
ROOT
ATOM      1  C02 MOL     1      -2.138   8.314 -21.944  1.00  0.00    -0.044 C 
ATOM      2  C03 MOL     1      -2.745   7.905 -20.748  1.00  0.00     0.129 C 
ATOM      3  C08 MOL     1      -2.051   7.106 -19.753  1.00  0.00    -0.316 C 
ATOM      4  C09 MOL     1      -0.703   6.862 -19.937  1.00  0.00     0.109 C 
ATOM      5  C0E MOL     1      -0.069   7.170 -21.106  1.00  0.00    -0.064 C 
ATOM      6  C0N MOL     1      -0.740   7.976 -22.056  1.00  0.00    -0.120 C 
ENDROOT
BRANCH   5   7
ATOM      7  C0F MOL     1       1.387   6.767 -21.282  1.00  0.00     0.047 C 
BRANCH   7   8
ATOM      8  C0G MOL     1       1.724   5.376 -21.747  1.00  0.00     0.171 C 
ATOM      9  C0M MOL     1       2.659   4.576 -21.057  1.00  0.00    -0.195 C 
ATOM     10  C0K MOL     1       2.983   3.273 -21.516  1.00  0.00    -0.062 C 
ATOM     11  C0J MOL     1       2.535   2.795 -22.751  1.00  0.00    -0.135 C 
ATOM     12  C0I MOL     1       1.618   3.643 -23.442  1.00  0.00    -0.071 C 
ATOM     13  C0H MOL     1       1.227   4.847 -22.896  1.00  0.00    -0.152 C 
ENDBRANCH   7   8
ENDBRANCH   5   7
BRANCH   6  14
ATOM     14  C0O MOL     1      -0.033   8.425 -23.376  1.00  0.00     0.092 C 
BRANCH  14  15
ATOM     15  N0P MOL     1       0.702   9.729 -23.334  1.00  0.00    -0.153 N 
ATOM     16  H0Q MOL     1       0.387  10.337 -24.072  1.00  0.00     0.257 HD
ATOM     17  H0R MOL     1       0.415  10.214 -22.489  1.00  0.00     0.244 HD
ATOM     18  H0S MOL     1       1.707   9.658 -23.414  1.00  0.00     0.246 HD
ENDBRANCH  14  15
ENDBRANCH   6  14
BRANCH   4  19
ATOM     19  C0A MOL     1       0.047   6.276 -18.719  1.00  0.00    -0.219 C 
BRANCH  19  20
ATOM     20  C0B MOL     1       0.162   7.232 -17.487  1.00  0.00     0.819 C 
ATOM     21  N0C MOL     1       0.012   6.704 -16.311  1.00  0.00    -0.993 N 
ATOM     22  H13 MOL     1      -0.123   5.696 -16.289  1.00  0.00     0.395 HD
ATOM     23  H14 MOL     1      -0.008   7.282 -15.492  1.00  0.00     0.440 HD
ATOM     24  O0D MOL     1       0.468   8.401 -17.636  1.00  0.00    -0.614 OA
ENDBRANCH  19  20
ENDBRANCH   4  19
BRANCH   1  25
ATOM     25  C01 MOL     1      -2.875   9.120 -23.036  1.00  0.00    -0.066 C 
ATOM     26  C00 MOL     1      -2.936  10.686 -22.692  1.00  0.00    -0.126 C 
ENDBRANCH   1  25
BRANCH   2  27
ATOM     27  C04 MOL     1      -4.196   8.133 -20.392  1.00  0.00    -0.266 C 
BRANCH  27  28
ATOM     28  C05 MOL     1      -5.018   6.882 -20.207  1.00  0.00     0.870 C 
ATOM     29  O06 MOL     1      -5.156   6.021 -21.054  1.00  0.00    -0.820 OA
ATOM     30  O07 MOL     1      -5.538   6.679 -19.057  1.00  0.00    -0.676 OA
ENDBRANCH  27  28
ENDBRANCH   2  27
TORSDOF 9
ENDMDL
MODEL 20
REMARK VINA RESULT:      -5.0     15.004     18.728
REMARK  9 active torsions:
REMARK  status: ('A' for Active; 'I' for Inactive)
REMARK    1  A    between atoms: C01_2  and  C02_3 
REMARK    2  A    between atoms: C03_4  and  C04_5 
REMARK    3  A    between atoms: C04_5  and  C05_6 
REMARK    4  A    between atoms: C09_10  and  C0A_11 
REMARK    5  A    between atoms: C0A_11  and  C0B_12 
REMARK       I    between atoms: C0B_12  and  N0C_13 
REMARK    6  A    between atoms: C0E_15  and  C0F_16 
REMARK    7  A    between atoms: C0F_16  and  C0G_17 
REMARK    8  A    between atoms: C0N_23  and  C0O_24 
REMARK    9  A    between atoms: C0O_24  and  N0P_25 
ROOT
ATOM      1  C02 MOL     1      -1.911   7.302 -20.865  1.00  0.00    -0.044 C 
ATOM      2  C03 MOL     1      -1.119   8.408 -21.203  1.00  0.00     0.129 C 
ATOM      3  C08 MOL     1      -1.657   9.579 -21.873  1.00  0.00    -0.316 C 
ATOM      4  C09 MOL     1      -3.025   9.655 -22.056  1.00  0.00     0.109 C 
ATOM      5  C0E MOL     1      -3.843   8.590 -21.815  1.00  0.00    -0.064 C 
ATOM      6  C0N MOL     1      -3.319   7.467 -21.132  1.00  0.00    -0.120 C 
ENDROOT
BRANCH   5   7
ATOM      7  C0F MOL     1      -5.322   8.708 -22.150  1.00  0.00     0.047 C 
BRANCH   7   8
ATOM      8  C0G MOL     1      -5.809   8.320 -23.519  1.00  0.00     0.171 C 
ATOM      9  C0M MOL     1      -6.935   7.489 -23.692  1.00  0.00    -0.195 C 
ATOM     10  C0K MOL     1      -7.375   7.116 -24.989  1.00  0.00    -0.062 C 
ATOM     11  C0J MOL     1      -6.621   7.399 -26.131  1.00  0.00    -0.135 C 
ATOM     12  C0I MOL     1      -5.467   8.213 -25.920  1.00  0.00    -0.071 C 
ATOM     13  C0H MOL     1      -5.149   8.665 -24.657  1.00  0.00    -0.152 C 
ENDBRANCH   7   8
ENDBRANCH   5   7
BRANCH   6  14
ATOM     14  C0O MOL     1      -4.231   6.252 -20.760  1.00  0.00     0.092 C 
BRANCH  14  15
ATOM     15  N0P MOL     1      -4.902   6.302 -19.422  1.00  0.00    -0.153 N 
ATOM     16  H0Q MOL     1      -4.972   5.379 -19.027  1.00  0.00     0.257 HD
ATOM     17  H0R MOL     1      -4.277   6.786 -18.785  1.00  0.00     0.244 HD
ATOM     18  H0S MOL     1      -5.832   6.698 -19.423  1.00  0.00     0.246 HD
ENDBRANCH  14  15
ENDBRANCH   6  14
BRANCH   4  19
ATOM     19  C0A MOL     1      -3.569  11.035 -22.493  1.00  0.00    -0.219 C 
BRANCH  19  20
ATOM     20  C0B MOL     1      -2.801  11.707 -23.677  1.00  0.00     0.819 C 
ATOM     21  N0C MOL     1      -2.205  12.833 -23.434  1.00  0.00    -0.993 N 
ATOM     22  H13 MOL     1      -2.248  13.163 -22.472  1.00  0.00     0.395 HD
ATOM     23  H14 MOL     1      -1.769  13.350 -24.175  1.00  0.00     0.440 HD
ATOM     24  O0D MOL     1      -2.702  11.143 -24.752  1.00  0.00    -0.614 OA
ENDBRANCH  19  20
ENDBRANCH   4  19
BRANCH   1  25
ATOM     25  C01 MOL     1      -1.348   6.028 -20.198  1.00  0.00    -0.066 C 
ATOM     26  C00 MOL     1      -1.156   6.209 -18.616  1.00  0.00    -0.126 C 
ENDBRANCH   1  25
BRANCH   2  27
ATOM     27  C04 MOL     1       0.380   8.485 -21.027  1.00  0.00    -0.266 C 
BRANCH  27  28
ATOM     28  C05 MOL     1       0.864   9.554 -20.079  1.00  0.00     0.870 C 
ATOM     29  O06 MOL     1       1.553  10.500 -20.407  1.00  0.00    -0.820 OA
ATOM     30  O07 MOL     1       0.456   9.501 -18.869  1.00  0.00    -0.676 OA
ENDBRANCH  27  28
ENDBRANCH   2  27
TORSDOF 9
ENDMDL
