MODEL 1
REMARK VINA RESULT:      -6.2      0.000      0.000
REMARK  9 active torsions:
REMARK  status: ('A' for Active; 'I' for Inactive)
REMARK    1  A    between atoms: C01_2  and  C02_3 
REMARK    2  A    between atoms: C03_4  and  C04_5 
REMARK    3  A    between atoms: C04_5  and  C05_6 
REMARK    4  A    between atoms: C09_10  and  C0A_11 
REMARK    5  A    between atoms: C0A_11  and  C0B_12 
REMARK       I    between atoms: C0B_12  and  N0C_13 
REMARK    6  A    between atoms: C0E_15  and  C0F_16 
REMARK    7  A    between atoms: C0F_16  and  C0G_17 
REMARK    8  A    between atoms: C0N_23  and  C0O_24 
REMARK    9  A    between atoms: C0O_24  and  N0P_25 
ROOT
ATOM      1  C02 MOL     1       2.038   7.552  -6.352  1.00  0.00    -0.044 C 
ATOM      2  C03 MOL     1       1.567   6.397  -5.711  1.00  0.00     0.129 C 
ATOM      3  C08 MOL     1       0.617   6.445  -4.614  1.00  0.00    -0.316 C 
ATOM      4  C09 MOL     1       0.057   7.666  -4.289  1.00  0.00     0.109 C 
ATOM      5  C0E MOL     1       0.519   8.834  -4.822  1.00  0.00    -0.064 C 
ATOM      6  C0N MOL     1       1.420   8.778  -5.913  1.00  0.00    -0.120 C 
ENDROOT
BRANCH   5   7
ATOM      7  C0F MOL     1      -0.065  10.149  -4.331  1.00  0.00     0.047 C 
BRANCH   7   8
ATOM      8  C0G MOL     1       0.509  10.809  -3.106  1.00  0.00     0.171 C 
ATOM      9  C0M MOL     1      -0.321  11.303  -2.079  1.00  0.00    -0.195 C 
ATOM     10  C0K MOL     1       0.231  11.939  -0.937  1.00  0.00    -0.062 C 
ATOM     11  C0J MOL     1       1.588  12.263  -0.860  1.00  0.00    -0.135 C 
ATOM     12  C0I MOL     1       2.397  11.780  -1.933  1.00  0.00    -0.071 C 
ATOM     13  C0H MOL     1       1.839  11.050  -2.960  1.00  0.00    -0.152 C 
ENDBRANCH   7   8
ENDBRANCH   5   7
BRANCH   6  14
ATOM     14  C0O MOL     1       1.919  10.084  -6.613  1.00  0.00     0.092 C 
BRANCH  14  15
ATOM     15  N0P MOL     1       1.154  10.532  -7.821  1.00  0.00    -0.153 N 
ATOM     16  H0Q MOL     1       0.282  10.034  -7.892  1.00  0.00     0.257 HD
ATOM     17  H0R MOL     1       0.866  11.493  -7.660  1.00  0.00     0.244 HD
ATOM     18  H0S MOL     1       1.637  10.418  -8.701  1.00  0.00     0.246 HD
ENDBRANCH  14  15
ENDBRANCH   6  14
BRANCH   4  19
ATOM     19  C0A MOL     1      -1.156   7.616  -3.332  1.00  0.00    -0.219 C 
BRANCH  19  20
ATOM     20  C0B MOL     1      -2.458   7.002  -3.942  1.00  0.00     0.819 C 
ATOM     21  N0C MOL     1      -2.793   5.811  -3.548  1.00  0.00    -0.993 N 
ATOM     22  H13 MOL     1      -2.200   5.395  -2.834  1.00  0.00     0.395 HD
ATOM     23  H14 MOL     1      -3.570   5.335  -3.967  1.00  0.00     0.440 HD
ATOM     24  O0D MOL     1      -3.164   7.657  -4.687  1.00  0.00    -0.614 OA
ENDBRANCH  19  20
ENDBRANCH   4  19
BRANCH   1  25
ATOM     25  C01 MOL     1       3.087   7.524  -7.485  1.00  0.00    -0.066 C 
ATOM     26  C00 MOL     1       2.416   7.287  -8.923  1.00  0.00    -0.126 C 
ENDBRANCH   1  25
BRANCH   2  27
ATOM     27  C04 MOL     1       2.056   4.994  -5.987  1.00  0.00    -0.266 C 
BRANCH  27  28
ATOM     28  C05 MOL     1       1.295   4.243  -7.050  1.00  0.00     0.870 C 
ATOM     29  O06 MOL     1       0.091   4.072  -7.039  1.00  0.00    -0.820 OA
ATOM     30  O07 MOL     1       1.949   3.829  -8.066  1.00  0.00    -0.676 OA
ENDBRANCH  27  28
ENDBRANCH   2  27
TORSDOF 9
ENDMDL
MODEL 2
REMARK VINA RESULT:      -5.8      3.624      7.029
REMARK  9 active torsions:
REMARK  status: ('A' for Active; 'I' for Inactive)
REMARK    1  A    between atoms: C01_2  and  C02_3 
REMARK    2  A    between atoms: C03_4  and  C04_5 
REMARK    3  A    between atoms: C04_5  and  C05_6 
REMARK    4  A    between atoms: C09_10  and  C0A_11 
REMARK    5  A    between atoms: C0A_11  and  C0B_12 
REMARK       I    between atoms: C0B_12  and  N0C_13 
REMARK    6  A    between atoms: C0E_15  and  C0F_16 
REMARK    7  A    between atoms: C0F_16  and  C0G_17 
REMARK    8  A    between atoms: C0N_23  and  C0O_24 
REMARK    9  A    between atoms: C0O_24  and  N0P_25 
ROOT
ATOM      1  C02 MOL     1       2.268  10.027  -0.832  1.00  0.00    -0.044 C 
ATOM      2  C03 MOL     1       1.157  10.701  -0.305  1.00  0.00     0.129 C 
ATOM      3  C08 MOL     1      -0.134  10.719  -0.970  1.00  0.00    -0.316 C 
ATOM      4  C09 MOL     1      -0.302   9.927  -2.090  1.00  0.00     0.109 C 
ATOM      5  C0E MOL     1       0.751   9.303  -2.694  1.00  0.00    -0.064 C 
ATOM      6  C0N MOL     1       1.997   9.261  -2.024  1.00  0.00    -0.120 C 
ENDROOT
BRANCH   5   7
ATOM      7  C0F MOL     1       0.511   8.543  -3.990  1.00  0.00     0.047 C 
BRANCH   7   8
ATOM      8  C0G MOL     1       0.173   7.078  -3.944  1.00  0.00     0.171 C 
ATOM      9  C0M MOL     1      -1.017   6.616  -3.345  1.00  0.00    -0.195 C 
ATOM     10  C0K MOL     1      -1.316   5.229  -3.292  1.00  0.00    -0.062 C 
ATOM     11  C0J MOL     1      -0.379   4.260  -3.662  1.00  0.00    -0.135 C 
ATOM     12  C0I MOL     1       0.830   4.760  -4.232  1.00  0.00    -0.071 C 
ATOM     13  C0H MOL     1       1.026   6.116  -4.387  1.00  0.00    -0.152 C 
ENDBRANCH   7   8
ENDBRANCH   5   7
BRANCH   6  14
ATOM     14  C0O MOL     1       3.215   8.492  -2.633  1.00  0.00     0.092 C 
BRANCH  14  15
ATOM     15  N0P MOL     1       3.490   7.127  -2.082  1.00  0.00    -0.153 N 
ATOM     16  H0Q MOL     1       4.325   6.742  -2.493  1.00  0.00     0.257 HD
ATOM     17  H0R MOL     1       3.736   7.237  -1.103  1.00  0.00     0.244 HD
ATOM     18  H0S MOL     1       2.751   6.452  -2.220  1.00  0.00     0.246 HD
ENDBRANCH  14  15
ENDBRANCH   6  14
BRANCH   4  19
ATOM     19  C0A MOL     1      -1.759   9.748  -2.575  1.00  0.00    -0.219 C 
BRANCH  19  20
ATOM     20  C0B MOL     1      -2.127  10.539  -3.873  1.00  0.00     0.819 C 
ATOM     21  N0C MOL     1      -2.957   9.974  -4.696  1.00  0.00    -0.993 N 
ATOM     22  H13 MOL     1      -3.337   9.078  -4.401  1.00  0.00     0.395 HD
ATOM     23  H14 MOL     1      -3.164  10.397  -5.582  1.00  0.00     0.440 HD
ATOM     24  O0D MOL     1      -1.715  11.672  -4.048  1.00  0.00    -0.614 OA
ENDBRANCH  19  20
ENDBRANCH   4  19
BRANCH   1  25
ATOM     25  C01 MOL     1       3.661  10.039  -0.166  1.00  0.00    -0.066 C 
ATOM     26  C00 MOL     1       4.556  11.275  -0.661  1.00  0.00    -0.126 C 
ENDBRANCH   1  25
BRANCH   2  27
ATOM     27  C04 MOL     1       1.179  11.571   0.931  1.00  0.00    -0.266 C 
BRANCH  27  28
ATOM     28  C05 MOL     1       0.905  13.035   0.692  1.00  0.00     0.870 C 
ATOM     29  O06 MOL     1       1.593  13.756  -0.004  1.00  0.00    -0.820 OA
ATOM     30  O07 MOL     1      -0.162  13.527   1.193  1.00  0.00    -0.676 OA
ENDBRANCH  27  28
ENDBRANCH   2  27
TORSDOF 9
ENDMDL
MODEL 3
REMARK VINA RESULT:      -5.5      3.671      7.108
REMARK  9 active torsions:
REMARK  status: ('A' for Active; 'I' for Inactive)
REMARK    1  A    between atoms: C01_2  and  C02_3 
REMARK    2  A    between atoms: C03_4  and  C04_5 
REMARK    3  A    between atoms: C04_5  and  C05_6 
REMARK    4  A    between atoms: C09_10  and  C0A_11 
REMARK    5  A    between atoms: C0A_11  and  C0B_12 
REMARK       I    between atoms: C0B_12  and  N0C_13 
REMARK    6  A    between atoms: C0E_15  and  C0F_16 
REMARK    7  A    between atoms: C0F_16  and  C0G_17 
REMARK    8  A    between atoms: C0N_23  and  C0O_24 
REMARK    9  A    between atoms: C0O_24  and  N0P_25 
ROOT
ATOM      1  C02 MOL     1       2.256  10.677  -0.390  1.00  0.00    -0.044 C 
ATOM      2  C03 MOL     1       0.978  11.101  -0.002  1.00  0.00     0.129 C 
ATOM      3  C08 MOL     1      -0.222  10.741  -0.738  1.00  0.00    -0.316 C 
ATOM      4  C09 MOL     1      -0.103   9.836  -1.776  1.00  0.00     0.109 C 
ATOM      5  C0E MOL     1       1.114   9.440  -2.250  1.00  0.00    -0.064 C 
ATOM      6  C0N MOL     1       2.275   9.766  -1.509  1.00  0.00    -0.120 C 
ENDROOT
BRANCH   5   7
ATOM      7  C0F MOL     1       1.169   8.534  -3.470  1.00  0.00     0.047 C 
BRANCH   7   8
ATOM      8  C0G MOL     1       1.346   9.135  -4.837  1.00  0.00     0.171 C 
ATOM      9  C0M MOL     1       1.814   8.367  -5.924  1.00  0.00    -0.195 C 
ATOM     10  C0K MOL     1       1.994   8.949  -7.205  1.00  0.00    -0.062 C 
ATOM     11  C0J MOL     1       1.892  10.328  -7.407  1.00  0.00    -0.135 C 
ATOM     12  C0I MOL     1       1.451  11.084  -6.279  1.00  0.00    -0.071 C 
ATOM     13  C0H MOL     1       1.160  10.458  -5.085  1.00  0.00    -0.152 C 
ENDBRANCH   7   8
ENDBRANCH   5   7
BRANCH   6  14
ATOM     14  C0O MOL     1       3.686   9.270  -1.962  1.00  0.00     0.092 C 
BRANCH  14  15
ATOM     15  N0P MOL     1       4.150   7.961  -1.402  1.00  0.00    -0.153 N 
ATOM     16  H0Q MOL     1       4.687   7.454  -2.086  1.00  0.00     0.257 HD
ATOM     17  H0R MOL     1       4.826   8.163  -0.672  1.00  0.00     0.244 HD
ATOM     18  H0S MOL     1       3.414   7.346  -1.084  1.00  0.00     0.246 HD
ENDBRANCH  14  15
ENDBRANCH   6  14
BRANCH   4  19
ATOM     19  C0A MOL     1      -1.431   9.263  -2.323  1.00  0.00    -0.219 C 
BRANCH  19  20
ATOM     20  C0B MOL     1      -2.156  10.159  -3.379  1.00  0.00     0.819 C 
ATOM     21  N0C MOL     1      -1.824  11.413  -3.420  1.00  0.00    -0.993 N 
ATOM     22  H13 MOL     1      -1.080  11.698  -2.788  1.00  0.00     0.395 HD
ATOM     23  H14 MOL     1      -2.315  12.051  -4.019  1.00  0.00     0.440 HD
ATOM     24  O0D MOL     1      -2.931   9.670  -4.181  1.00  0.00    -0.614 OA
ENDBRANCH  19  20
ENDBRANCH   4  19
BRANCH   1  25
ATOM     25  C01 MOL     1       3.547  11.091   0.349  1.00  0.00    -0.066 C 
ATOM     26  C00 MOL     1       3.839  10.158   1.621  1.00  0.00    -0.126 C 
ENDBRANCH   1  25
BRANCH   2  27
ATOM     27  C04 MOL     1       0.690  12.056   1.134  1.00  0.00    -0.266 C 
BRANCH  27  28
ATOM     28  C05 MOL     1       0.795  13.520   0.787  1.00  0.00     0.870 C 
ATOM     29  O06 MOL     1       1.785  14.199   0.977  1.00  0.00    -0.820 OA
ATOM     30  O07 MOL     1      -0.195  14.058   0.184  1.00  0.00    -0.676 OA
ENDBRANCH  27  28
ENDBRANCH   2  27
TORSDOF 9
ENDMDL
MODEL 4
REMARK VINA RESULT:      -5.4     13.045     16.234
REMARK  9 active torsions:
REMARK  status: ('A' for Active; 'I' for Inactive)
REMARK    1  A    between atoms: C01_2  and  C02_3 
REMARK    2  A    between atoms: C03_4  and  C04_5 
REMARK    3  A    between atoms: C04_5  and  C05_6 
REMARK    4  A    between atoms: C09_10  and  C0A_11 
REMARK    5  A    between atoms: C0A_11  and  C0B_12 
REMARK       I    between atoms: C0B_12  and  N0C_13 
REMARK    6  A    between atoms: C0E_15  and  C0F_16 
REMARK    7  A    between atoms: C0F_16  and  C0G_17 
REMARK    8  A    between atoms: C0N_23  and  C0O_24 
REMARK    9  A    between atoms: C0O_24  and  N0P_25 
ROOT
ATOM      1  C02 MOL     1      -3.759   6.647 -19.991  1.00  0.00    -0.044 C 
ATOM      2  C03 MOL     1      -4.424   7.771 -20.499  1.00  0.00     0.129 C 
ATOM      3  C08 MOL     1      -3.735   9.010 -20.818  1.00  0.00    -0.316 C 
ATOM      4  C09 MOL     1      -2.354   9.025 -20.746  1.00  0.00     0.109 C 
ATOM      5  C0E MOL     1      -1.651   7.992 -20.195  1.00  0.00    -0.064 C 
ATOM      6  C0N MOL     1      -2.324   6.778 -19.918  1.00  0.00    -0.120 C 
ENDROOT
BRANCH   5   7
ATOM      7  C0F MOL     1      -0.144   8.128 -20.041  1.00  0.00     0.047 C 
BRANCH   7   8
ATOM      8  C0G MOL     1       0.438   8.507 -18.707  1.00  0.00     0.171 C 
ATOM      9  C0M MOL     1       0.351   9.825 -18.214  1.00  0.00    -0.195 C 
ATOM     10  C0K MOL     1       0.920  10.175 -16.961  1.00  0.00    -0.062 C 
ATOM     11  C0J MOL     1       1.736   9.290 -16.251  1.00  0.00    -0.135 C 
ATOM     12  C0I MOL     1       1.833   7.973 -16.794  1.00  0.00    -0.071 C 
ATOM     13  C0H MOL     1       1.155   7.637 -17.947  1.00  0.00    -0.152 C 
ENDBRANCH   7   8
ENDBRANCH   5   7
BRANCH   6  14
ATOM     14  C0O MOL     1      -1.552   5.538 -19.361  1.00  0.00     0.092 C 
BRANCH  14  15
ATOM     15  N0P MOL     1      -1.420   5.442 -17.872  1.00  0.00    -0.153 N 
ATOM     16  H0Q MOL     1      -2.062   6.071 -17.419  1.00  0.00     0.257 HD
ATOM     17  H0R MOL     1      -1.752   4.523 -17.595  1.00  0.00     0.244 HD
ATOM     18  H0S MOL     1      -0.498   5.644 -17.510  1.00  0.00     0.246 HD
ENDBRANCH  14  15
ENDBRANCH   6  14
BRANCH   4  19
ATOM     19  C0A MOL     1      -1.661  10.253 -21.378  1.00  0.00    -0.219 C 
BRANCH  19  20
ATOM     20  C0B MOL     1      -2.299  10.762 -22.711  1.00  0.00     0.819 C 
ATOM     21  N0C MOL     1      -2.821  11.951 -22.703  1.00  0.00    -0.993 N 
ATOM     22  H13 MOL     1      -2.727  12.473 -21.835  1.00  0.00     0.395 HD
ATOM     23  H14 MOL     1      -3.317  12.295 -23.504  1.00  0.00     0.440 HD
ATOM     24  O0D MOL     1      -2.224  10.097 -23.729  1.00  0.00    -0.614 OA
ENDBRANCH  19  20
ENDBRANCH   4  19
BRANCH   1  25
ATOM     25  C01 MOL     1      -4.482   5.340 -19.598  1.00  0.00    -0.066 C 
ATOM     26  C00 MOL     1      -5.008   5.373 -18.083  1.00  0.00    -0.126 C 
ENDBRANCH   1  25
BRANCH   2  27
ATOM     27  C04 MOL     1      -5.921   7.887 -20.670  1.00  0.00    -0.266 C 
BRANCH  27  28
ATOM     28  C05 MOL     1      -6.426   7.691 -22.078  1.00  0.00     0.870 C 
ATOM     29  O06 MOL     1      -5.746   7.833 -23.076  1.00  0.00    -0.820 OA
ATOM     30  O07 MOL     1      -7.624   7.273 -22.224  1.00  0.00    -0.676 OA
ENDBRANCH  27  28
ENDBRANCH   2  27
TORSDOF 9
ENDMDL
MODEL 5
REMARK VINA RESULT:      -5.3     20.842     23.415
REMARK  9 active torsions:
REMARK  status: ('A' for Active; 'I' for Inactive)
REMARK    1  A    between atoms: C01_2  and  C02_3 
REMARK    2  A    between atoms: C03_4  and  C04_5 
REMARK    3  A    between atoms: C04_5  and  C05_6 
REMARK    4  A    between atoms: C09_10  and  C0A_11 
REMARK    5  A    between atoms: C0A_11  and  C0B_12 
REMARK       I    between atoms: C0B_12  and  N0C_13 
REMARK    6  A    between atoms: C0E_15  and  C0F_16 
REMARK    7  A    between atoms: C0F_16  and  C0G_17 
REMARK    8  A    between atoms: C0N_23  and  C0O_24 
REMARK    9  A    between atoms: C0O_24  and  N0P_25 
ROOT
ATOM      1  C02 MOL     1      -8.266   1.605  13.272  1.00  0.00    -0.044 C 
ATOM      2  C03 MOL     1      -8.480   0.730  12.198  1.00  0.00     0.129 C 
ATOM      3  C08 MOL     1      -9.462  -0.339  12.243  1.00  0.00    -0.316 C 
ATOM      4  C09 MOL     1     -10.308  -0.401  13.335  1.00  0.00     0.109 C 
ATOM      5  C0E MOL     1     -10.111   0.372  14.442  1.00  0.00    -0.064 C 
ATOM      6  C0N MOL     1      -9.175   1.432  14.379  1.00  0.00    -0.120 C 
ENDROOT
BRANCH   5   7
ATOM      7  C0F MOL     1     -11.010   0.166  15.652  1.00  0.00     0.047 C 
BRANCH   7   8
ATOM      8  C0G MOL     1     -10.577  -0.764  16.753  1.00  0.00     0.171 C 
ATOM      9  C0M MOL     1     -10.411  -2.145  16.526  1.00  0.00    -0.195 C 
ATOM     10  C0K MOL     1     -10.020  -3.016  17.576  1.00  0.00    -0.062 C 
ATOM     11  C0J MOL     1      -9.958  -2.584  18.904  1.00  0.00    -0.135 C 
ATOM     12  C0I MOL     1     -10.166  -1.186  19.107  1.00  0.00    -0.071 C 
ATOM     13  C0H MOL     1     -10.413  -0.351  18.038  1.00  0.00    -0.152 C 
ENDBRANCH   7   8
ENDBRANCH   5   7
BRANCH   6  14
ATOM     14  C0O MOL     1      -8.967   2.397  15.590  1.00  0.00     0.092 C 
BRANCH  14  15
ATOM     15  N0P MOL     1      -9.837   3.616  15.635  1.00  0.00    -0.153 N 
ATOM     16  H0Q MOL     1     -10.573   3.501  16.312  1.00  0.00     0.257 HD
ATOM     17  H0R MOL     1      -9.280   4.375  16.016  1.00  0.00     0.244 HD
ATOM     18  H0S MOL     1     -10.274   3.863  14.758  1.00  0.00     0.246 HD
ENDBRANCH  14  15
ENDBRANCH   6  14
BRANCH   4  19
ATOM     19  C0A MOL     1     -11.516  -1.356  13.196  1.00  0.00    -0.219 C 
BRANCH  19  20
ATOM     20  C0B MOL     1     -12.885  -0.656  12.910  1.00  0.00     0.819 C 
ATOM     21  N0C MOL     1     -13.961  -1.347  13.131  1.00  0.00    -0.993 N 
ATOM     22  H13 MOL     1     -13.822  -2.276  13.521  1.00  0.00     0.395 HD
ATOM     23  H14 MOL     1     -14.862  -0.980  12.887  1.00  0.00     0.440 HD
ATOM     24  O0D MOL     1     -12.926   0.514  12.577  1.00  0.00    -0.614 OA
ENDBRANCH  19  20
ENDBRANCH   4  19
BRANCH   1  25
ATOM     25  C01 MOL     1      -7.192   2.714  13.261  1.00  0.00    -0.066 C 
ATOM     26  C00 MOL     1      -7.745   4.084  12.636  1.00  0.00    -0.126 C 
ENDBRANCH   1  25
BRANCH   2  27
ATOM     27  C04 MOL     1      -7.662   0.705  10.926  1.00  0.00    -0.266 C 
BRANCH  27  28
ATOM     28  C05 MOL     1      -8.047   1.733   9.892  1.00  0.00     0.870 C 
ATOM     29  O06 MOL     1      -9.175   1.887   9.466  1.00  0.00    -0.820 OA
ATOM     30  O07 MOL     1      -7.141   2.544   9.498  1.00  0.00    -0.676 OA
ENDBRANCH  27  28
ENDBRANCH   2  27
TORSDOF 9
ENDMDL
MODEL 6
REMARK VINA RESULT:      -5.3      3.545      4.682
REMARK  9 active torsions:
REMARK  status: ('A' for Active; 'I' for Inactive)
REMARK    1  A    between atoms: C01_2  and  C02_3 
REMARK    2  A    between atoms: C03_4  and  C04_5 
REMARK    3  A    between atoms: C04_5  and  C05_6 
REMARK    4  A    between atoms: C09_10  and  C0A_11 
REMARK    5  A    between atoms: C0A_11  and  C0B_12 
REMARK       I    between atoms: C0B_12  and  N0C_13 
REMARK    6  A    between atoms: C0E_15  and  C0F_16 
REMARK    7  A    between atoms: C0F_16  and  C0G_17 
REMARK    8  A    between atoms: C0N_23  and  C0O_24 
REMARK    9  A    between atoms: C0O_24  and  N0P_25 
ROOT
ATOM      1  C02 MOL     1       3.192  10.719  -3.617  1.00  0.00    -0.044 C 
ATOM      2  C03 MOL     1       2.309  10.978  -4.674  1.00  0.00     0.129 C 
ATOM      3  C08 MOL     1       0.866  10.902  -4.524  1.00  0.00    -0.316 C 
ATOM      4  C09 MOL     1       0.352  10.701  -3.256  1.00  0.00     0.109 C 
ATOM      5  C0E MOL     1       1.151  10.374  -2.199  1.00  0.00    -0.064 C 
ATOM      6  C0N MOL     1       2.555  10.483  -2.344  1.00  0.00    -0.120 C 
ENDROOT
BRANCH   5   7
ATOM      7  C0F MOL     1       0.505  10.052  -0.860  1.00  0.00     0.047 C 
BRANCH   7   8
ATOM      8  C0G MOL     1       0.385  11.127   0.186  1.00  0.00     0.171 C 
ATOM      9  C0M MOL     1       0.081  10.816   1.528  1.00  0.00    -0.195 C 
ATOM     10  C0K MOL     1      -0.048  11.839   2.502  1.00  0.00    -0.062 C 
ATOM     11  C0J MOL     1      -0.058  13.192   2.151  1.00  0.00    -0.135 C 
ATOM     12  C0I MOL     1       0.217  13.474   0.779  1.00  0.00    -0.071 C 
ATOM     13  C0H MOL     1       0.468  12.451  -0.111  1.00  0.00    -0.152 C 
ENDBRANCH   7   8
ENDBRANCH   5   7
BRANCH   6  14
ATOM     14  C0O MOL     1       3.514  10.197  -1.143  1.00  0.00     0.092 C 
BRANCH  14  15
ATOM     15  N0P MOL     1       3.844   8.761  -0.874  1.00  0.00    -0.153 N 
ATOM     16  H0Q MOL     1       3.011   8.196  -0.901  1.00  0.00     0.257 HD
ATOM     17  H0R MOL     1       4.388   8.421  -1.662  1.00  0.00     0.244 HD
ATOM     18  H0S MOL     1       4.297   8.584   0.011  1.00  0.00     0.246 HD
ENDBRANCH  14  15
ENDBRANCH   6  14
BRANCH   4  19
ATOM     19  C0A MOL     1      -1.170  10.928  -3.104  1.00  0.00    -0.219 C 
BRANCH  19  20
ATOM     20  C0B MOL     1      -2.072   9.809  -3.720  1.00  0.00     0.819 C 
ATOM     21  N0C MOL     1      -1.674   8.582  -3.577  1.00  0.00    -0.993 N 
ATOM     22  H13 MOL     1      -0.827   8.448  -3.031  1.00  0.00     0.395 HD
ATOM     23  H14 MOL     1      -2.168   7.831  -4.023  1.00  0.00     0.440 HD
ATOM     24  O0D MOL     1      -3.142  10.086  -4.232  1.00  0.00    -0.614 OA
ENDBRANCH  19  20
ENDBRANCH   4  19
BRANCH   1  25
ATOM     25  C01 MOL     1       4.729  10.746  -3.770  1.00  0.00    -0.066 C 
ATOM     26  C00 MOL     1       5.311   9.333  -4.258  1.00  0.00    -0.126 C 
ENDBRANCH   1  25
BRANCH   2  27
ATOM     27  C04 MOL     1       2.724  11.251  -6.101  1.00  0.00    -0.266 C 
BRANCH  27  28
ATOM     28  C05 MOL     1       1.725  10.837  -7.153  1.00  0.00     0.870 C 
ATOM     29  O06 MOL     1       0.972  11.604  -7.722  1.00  0.00    -0.820 OA
ATOM     30  O07 MOL     1       1.728   9.614  -7.523  1.00  0.00    -0.676 OA
ENDBRANCH  27  28
ENDBRANCH   2  27
TORSDOF 9
ENDMDL
MODEL 7
REMARK VINA RESULT:      -5.2     12.745     16.298
REMARK  9 active torsions:
REMARK  status: ('A' for Active; 'I' for Inactive)
REMARK    1  A    between atoms: C01_2  and  C02_3 
REMARK    2  A    between atoms: C03_4  and  C04_5 
REMARK    3  A    between atoms: C04_5  and  C05_6 
REMARK    4  A    between atoms: C09_10  and  C0A_11 
REMARK    5  A    between atoms: C0A_11  and  C0B_12 
REMARK       I    between atoms: C0B_12  and  N0C_13 
REMARK    6  A    between atoms: C0E_15  and  C0F_16 
REMARK    7  A    between atoms: C0F_16  and  C0G_17 
REMARK    8  A    between atoms: C0N_23  and  C0O_24 
REMARK    9  A    between atoms: C0O_24  and  N0P_25 
ROOT
ATOM      1  C02 MOL     1      -4.296   7.324 -20.271  1.00  0.00    -0.044 C 
ATOM      2  C03 MOL     1      -3.649   8.028 -21.296  1.00  0.00     0.129 C 
ATOM      3  C08 MOL     1      -2.232   7.876 -21.576  1.00  0.00    -0.316 C 
ATOM      4  C09 MOL     1      -1.534   6.898 -20.893  1.00  0.00     0.109 C 
ATOM      5  C0E MOL     1      -2.082   6.226 -19.838  1.00  0.00    -0.064 C 
ATOM      6  C0N MOL     1      -3.470   6.355 -19.593  1.00  0.00    -0.120 C 
ENDROOT
BRANCH   5   7
ATOM      7  C0F MOL     1      -1.216   5.247 -19.060  1.00  0.00     0.047 C 
BRANCH   7   8
ATOM      8  C0G MOL     1      -0.352   5.748 -17.935  1.00  0.00     0.171 C 
ATOM      9  C0M MOL     1      -0.358   7.104 -17.550  1.00  0.00    -0.195 C 
ATOM     10  C0K MOL     1       0.476   7.568 -16.499  1.00  0.00    -0.062 C 
ATOM     11  C0J MOL     1       1.457   6.755 -15.926  1.00  0.00    -0.135 C 
ATOM     12  C0I MOL     1       1.462   5.396 -16.362  1.00  0.00    -0.071 C 
ATOM     13  C0H MOL     1       0.545   4.954 -17.292  1.00  0.00    -0.152 C 
ENDBRANCH   7   8
ENDBRANCH   5   7
BRANCH   6  14
ATOM     14  C0O MOL     1      -4.164   5.547 -18.448  1.00  0.00     0.092 C 
BRANCH  14  15
ATOM     15  N0P MOL     1      -4.535   4.129 -18.756  1.00  0.00    -0.153 N 
ATOM     16  H0Q MOL     1      -5.154   4.090 -19.550  1.00  0.00     0.257 HD
ATOM     17  H0R MOL     1      -3.697   3.659 -19.086  1.00  0.00     0.244 HD
ATOM     18  H0S MOL     1      -4.984   3.630 -18.002  1.00  0.00     0.246 HD
ENDBRANCH  14  15
ENDBRANCH   6  14
BRANCH   4  19
ATOM     19  C0A MOL     1      -0.123   6.576 -21.436  1.00  0.00    -0.219 C 
BRANCH  19  20
ATOM     20  C0B MOL     1       0.982   7.620 -21.072  1.00  0.00     0.819 C 
ATOM     21  N0C MOL     1       1.931   7.227 -20.279  1.00  0.00    -0.993 N 
ATOM     22  H13 MOL     1       1.901   6.250 -19.997  1.00  0.00     0.395 HD
ATOM     23  H14 MOL     1       2.619   7.877 -19.946  1.00  0.00     0.440 HD
ATOM     24  O0D MOL     1       0.987   8.724 -21.588  1.00  0.00    -0.614 OA
ENDBRANCH  19  20
ENDBRANCH   4  19
BRANCH   1  25
ATOM     25  C01 MOL     1      -5.790   7.510 -19.925  1.00  0.00    -0.066 C 
ATOM     26  C00 MOL     1      -6.026   8.726 -18.906  1.00  0.00    -0.126 C 
ENDBRANCH   1  25
BRANCH   2  27
ATOM     27  C04 MOL     1      -4.292   9.097 -22.150  1.00  0.00    -0.266 C 
BRANCH  27  28
ATOM     28  C05 MOL     1      -4.984   8.599 -23.393  1.00  0.00     0.870 C 
ATOM     29  O06 MOL     1      -6.049   8.012 -23.396  1.00  0.00    -0.820 OA
ATOM     30  O07 MOL     1      -4.452   8.881 -24.520  1.00  0.00    -0.676 OA
ENDBRANCH  27  28
ENDBRANCH   2  27
TORSDOF 9
ENDMDL
MODEL 8
REMARK VINA RESULT:      -5.1      6.732     10.079
REMARK  9 active torsions:
REMARK  status: ('A' for Active; 'I' for Inactive)
REMARK    1  A    between atoms: C01_2  and  C02_3 
REMARK    2  A    between atoms: C03_4  and  C04_5 
REMARK    3  A    between atoms: C04_5  and  C05_6 
REMARK    4  A    between atoms: C09_10  and  C0A_11 
REMARK    5  A    between atoms: C0A_11  and  C0B_12 
REMARK       I    between atoms: C0B_12  and  N0C_13 
REMARK    6  A    between atoms: C0E_15  and  C0F_16 
REMARK    7  A    between atoms: C0F_16  and  C0G_17 
REMARK    8  A    between atoms: C0N_23  and  C0O_24 
REMARK    9  A    between atoms: C0O_24  and  N0P_25 
ROOT
ATOM      1  C02 MOL     1       2.601   6.265 -15.107  1.00  0.00    -0.044 C 
ATOM      2  C03 MOL     1       3.209   7.525 -15.186  1.00  0.00     0.129 C 
ATOM      3  C08 MOL     1       4.099   8.030 -14.155  1.00  0.00    -0.316 C 
ATOM      4  C09 MOL     1       4.463   7.174 -13.133  1.00  0.00     0.109 C 
ATOM      5  C0E MOL     1       3.858   5.964 -12.957  1.00  0.00    -0.064 C 
ATOM      6  C0N MOL     1       3.018   5.465 -13.981  1.00  0.00    -0.120 C 
ENDROOT
BRANCH   5   7
ATOM      7  C0F MOL     1       4.226   5.126 -11.743  1.00  0.00     0.047 C 
BRANCH   7   8
ATOM      8  C0G MOL     1       3.405   5.233 -10.487  1.00  0.00     0.171 C 
ATOM      9  C0M MOL     1       2.467   4.240 -10.134  1.00  0.00    -0.195 C 
ATOM     10  C0K MOL     1       1.685   4.361  -8.956  1.00  0.00    -0.062 C 
ATOM     11  C0J MOL     1       1.676   5.534  -8.196  1.00  0.00    -0.135 C 
ATOM     12  C0I MOL     1       2.611   6.535  -8.599  1.00  0.00    -0.071 C 
ATOM     13  C0H MOL     1       3.448   6.322  -9.674  1.00  0.00    -0.152 C 
ENDBRANCH   7   8
ENDBRANCH   5   7
BRANCH   6  14
ATOM     14  C0O MOL     1       2.363   4.050 -13.869  1.00  0.00     0.092 C 
BRANCH  14  15
ATOM     15  N0P MOL     1       3.145   2.901 -14.429  1.00  0.00    -0.153 N 
ATOM     16  H0Q MOL     1       2.637   2.460 -15.178  1.00  0.00     0.257 HD
ATOM     17  H0R MOL     1       3.963   3.286 -14.891  1.00  0.00     0.244 HD
ATOM     18  H0S MOL     1       3.383   2.180 -13.763  1.00  0.00     0.246 HD
ENDBRANCH  14  15
ENDBRANCH   6  14
BRANCH   4  19
ATOM     19  C0A MOL     1       5.633   7.651 -12.241  1.00  0.00    -0.219 C 
BRANCH  19  20
ATOM     20  C0B MOL     1       5.533   9.133 -11.752  1.00  0.00     0.819 C 
ATOM     21  N0C MOL     1       4.710   9.382 -10.780  1.00  0.00    -0.993 N 
ATOM     22  H13 MOL     1       4.231   8.577 -10.384  1.00  0.00     0.395 HD
ATOM     23  H14 MOL     1       4.543  10.326 -10.482  1.00  0.00     0.440 HD
ATOM     24  O0D MOL     1       6.265   9.990 -12.214  1.00  0.00    -0.614 OA
ENDBRANCH  19  20
ENDBRANCH   4  19
BRANCH   1  25
ATOM     25  C01 MOL     1       1.612   5.732 -16.168  1.00  0.00    -0.066 C 
ATOM     26  C00 MOL     1       2.325   5.473 -17.581  1.00  0.00    -0.126 C 
ENDBRANCH   1  25
BRANCH   2  27
ATOM     27  C04 MOL     1       2.939   8.550 -16.264  1.00  0.00    -0.266 C 
BRANCH  27  28
ATOM     28  C05 MOL     1       1.711   9.400 -16.053  1.00  0.00     0.870 C 
ATOM     29  O06 MOL     1       0.571   9.003 -16.198  1.00  0.00    -0.820 OA
ATOM     30  O07 MOL     1       1.881  10.589 -15.619  1.00  0.00    -0.676 OA
ENDBRANCH  27  28
ENDBRANCH   2  27
TORSDOF 9
ENDMDL
MODEL 9
REMARK VINA RESULT:      -5.0     20.598     22.955
REMARK  9 active torsions:
REMARK  status: ('A' for Active; 'I' for Inactive)
REMARK    1  A    between atoms: C01_2  and  C02_3 
REMARK    2  A    between atoms: C03_4  and  C04_5 
REMARK    3  A    between atoms: C04_5  and  C05_6 
REMARK    4  A    between atoms: C09_10  and  C0A_11 
REMARK    5  A    between atoms: C0A_11  and  C0B_12 
REMARK       I    between atoms: C0B_12  and  N0C_13 
REMARK    6  A    between atoms: C0E_15  and  C0F_16 
REMARK    7  A    between atoms: C0F_16  and  C0G_17 
REMARK    8  A    between atoms: C0N_23  and  C0O_24 
REMARK    9  A    between atoms: C0O_24  and  N0P_25 
ROOT
ATOM      1  C02 MOL     1      -9.722   2.191  12.132  1.00  0.00    -0.044 C 
ATOM      2  C03 MOL     1      -9.343   0.865  11.883  1.00  0.00     0.129 C 
ATOM      3  C08 MOL     1      -9.415  -0.173  12.897  1.00  0.00    -0.316 C 
ATOM      4  C09 MOL     1     -10.010   0.138  14.106  1.00  0.00     0.109 C 
ATOM      5  C0E MOL     1     -10.336   1.420  14.439  1.00  0.00    -0.064 C 
ATOM      6  C0N MOL     1     -10.295   2.418  13.437  1.00  0.00    -0.120 C 
ENDROOT
BRANCH   5   7
ATOM      7  C0F MOL     1     -10.879   1.703  15.831  1.00  0.00     0.047 C 
BRANCH   7   8
ATOM      8  C0G MOL     1      -9.925   1.874  16.983  1.00  0.00     0.171 C 
ATOM      9  C0M MOL     1     -10.218   1.359  18.263  1.00  0.00    -0.195 C 
ATOM     10  C0K MOL     1      -9.319   1.542  19.345  1.00  0.00    -0.062 C 
ATOM     11  C0J MOL     1      -8.205   2.380  19.243  1.00  0.00    -0.135 C 
ATOM     12  C0I MOL     1      -7.955   2.914  17.944  1.00  0.00    -0.071 C 
ATOM     13  C0H MOL     1      -8.782   2.604  16.885  1.00  0.00    -0.152 C 
ENDBRANCH   7   8
ENDBRANCH   5   7
BRANCH   6  14
ATOM     14  C0O MOL     1     -10.734   3.887  13.742  1.00  0.00     0.092 C 
BRANCH  14  15
ATOM     15  N0P MOL     1      -9.684   4.801  14.296  1.00  0.00    -0.153 N 
ATOM     16  H0Q MOL     1      -8.801   4.321  14.370  1.00  0.00     0.257 HD
ATOM     17  H0R MOL     1      -9.507   5.519  13.601  1.00  0.00     0.244 HD
ATOM     18  H0S MOL     1      -9.890   5.188  15.206  1.00  0.00     0.246 HD
ENDBRANCH  14  15
ENDBRANCH   6  14
BRANCH   4  19
ATOM     19  C0A MOL     1     -10.331  -1.063  15.025  1.00  0.00    -0.219 C 
BRANCH  19  20
ATOM     20  C0B MOL     1     -11.779  -1.637  14.885  1.00  0.00     0.819 C 
ATOM     21  N0C MOL     1     -12.584  -1.466  15.888  1.00  0.00    -0.993 N 
ATOM     22  H13 MOL     1     -12.216  -0.926  16.668  1.00  0.00     0.395 HD
ATOM     23  H14 MOL     1     -13.496  -1.884  15.888  1.00  0.00     0.440 HD
ATOM     24  O0D MOL     1     -12.148  -2.143  13.841  1.00  0.00    -0.614 OA
ENDBRANCH  19  20
ENDBRANCH   4  19
BRANCH   1  25
ATOM     25  C01 MOL     1      -9.604   3.318  11.082  1.00  0.00    -0.066 C 
ATOM     26  C00 MOL     1     -10.834   3.314  10.052  1.00  0.00    -0.126 C 
ENDBRANCH   1  25
BRANCH   2  27
ATOM     27  C04 MOL     1      -8.716   0.370  10.599  1.00  0.00    -0.266 C 
BRANCH  27  28
ATOM     28  C05 MOL     1      -7.208   0.381  10.572  1.00  0.00     0.870 C 
ATOM     29  O06 MOL     1      -6.523  -0.545  10.186  1.00  0.00    -0.820 OA
ATOM     30  O07 MOL     1      -6.619   1.465  10.903  1.00  0.00    -0.676 OA
ENDBRANCH  27  28
ENDBRANCH   2  27
TORSDOF 9
ENDMDL
MODEL 10
REMARK VINA RESULT:      -5.0     17.099     20.506
REMARK  9 active torsions:
REMARK  status: ('A' for Active; 'I' for Inactive)
REMARK    1  A    between atoms: C01_2  and  C02_3 
REMARK    2  A    between atoms: C03_4  and  C04_5 
REMARK    3  A    between atoms: C04_5  and  C05_6 
REMARK    4  A    between atoms: C09_10  and  C0A_11 
REMARK    5  A    between atoms: C0A_11  and  C0B_12 
REMARK       I    between atoms: C0B_12  and  N0C_13 
REMARK    6  A    between atoms: C0E_15  and  C0F_16 
REMARK    7  A    between atoms: C0F_16  and  C0G_17 
REMARK    8  A    between atoms: C0N_23  and  C0O_24 
REMARK    9  A    between atoms: C0O_24  and  N0P_25 
ROOT
ATOM      1  C02 MOL     1      -4.285   8.889 -21.848  1.00  0.00    -0.044 C 
ATOM      2  C03 MOL     1      -5.382   8.122 -21.432  1.00  0.00     0.129 C 
ATOM      3  C08 MOL     1      -6.420   7.681 -22.347  1.00  0.00    -0.316 C 
ATOM      4  C09 MOL     1      -6.239   7.912 -23.698  1.00  0.00     0.109 C 
ATOM      5  C0E MOL     1      -5.233   8.709 -24.163  1.00  0.00    -0.064 C 
ATOM      6  C0N MOL     1      -4.209   9.107 -23.272  1.00  0.00    -0.120 C 
ENDROOT
BRANCH   5   7
ATOM      7  C0F MOL     1      -5.164   9.014 -25.652  1.00  0.00     0.047 C 
BRANCH   7   8
ATOM      8  C0G MOL     1      -4.449   8.065 -26.575  1.00  0.00     0.171 C 
ATOM      9  C0M MOL     1      -5.151   7.104 -27.331  1.00  0.00    -0.195 C 
ATOM     10  C0K MOL     1      -4.463   6.204 -28.185  1.00  0.00    -0.062 C 
ATOM     11  C0J MOL     1      -3.069   6.105 -28.181  1.00  0.00    -0.135 C 
ATOM     12  C0I MOL     1      -2.387   7.068 -27.378  1.00  0.00    -0.071 C 
ATOM     13  C0H MOL     1      -3.093   8.014 -26.664  1.00  0.00    -0.152 C 
ENDBRANCH   7   8
ENDBRANCH   5   7
BRANCH   6  14
ATOM     14  C0O MOL     1      -2.991   9.953 -23.768  1.00  0.00     0.092 C 
BRANCH  14  15
ATOM     15  N0P MOL     1      -3.187  11.437 -23.835  1.00  0.00    -0.153 N 
ATOM     16  H0Q MOL     1      -2.386  11.881 -24.252  1.00  0.00     0.257 HD
ATOM     17  H0R MOL     1      -3.932  11.616 -24.501  1.00  0.00     0.244 HD
ATOM     18  H0S MOL     1      -3.350  11.888 -22.945  1.00  0.00     0.246 HD
ENDBRANCH  14  15
ENDBRANCH   6  14
BRANCH   4  19
ATOM     19  C0A MOL     1      -7.208   7.166 -24.644  1.00  0.00    -0.219 C 
BRANCH  19  20
ATOM     20  C0B MOL     1      -8.309   8.059 -25.304  1.00  0.00     0.819 C 
ATOM     21  N0C MOL     1      -8.780   9.039 -24.595  1.00  0.00    -0.993 N 
ATOM     22  H13 MOL     1      -8.355   9.174 -23.681  1.00  0.00     0.395 HD
ATOM     23  H14 MOL     1      -9.545   9.593 -24.935  1.00  0.00     0.440 HD
ATOM     24  O0D MOL     1      -8.638   7.885 -26.463  1.00  0.00    -0.614 OA
ENDBRANCH  19  20
ENDBRANCH   4  19
BRANCH   1  25
ATOM     25  C01 MOL     1      -3.199   9.410 -20.881  1.00  0.00    -0.066 C 
ATOM     26  C00 MOL     1      -2.015   8.347 -20.673  1.00  0.00    -0.126 C 
ENDBRANCH   1  25
BRANCH   2  27
ATOM     27  C04 MOL     1      -5.690   7.758 -19.997  1.00  0.00    -0.266 C 
BRANCH  27  28
ATOM     28  C05 MOL     1      -5.089   6.461 -19.518  1.00  0.00     0.870 C 
ATOM     29  O06 MOL     1      -4.292   5.799 -20.154  1.00  0.00    -0.820 OA
ATOM     30  O07 MOL     1      -5.380   6.075 -18.335  1.00  0.00    -0.676 OA
ENDBRANCH  27  28
ENDBRANCH   2  27
TORSDOF 9
ENDMDL
MODEL 11
REMARK VINA RESULT:      -5.0     18.915     20.798
REMARK  9 active torsions:
REMARK  status: ('A' for Active; 'I' for Inactive)
REMARK    1  A    between atoms: C01_2  and  C02_3 
REMARK    2  A    between atoms: C03_4  and  C04_5 
REMARK    3  A    between atoms: C04_5  and  C05_6 
REMARK    4  A    between atoms: C09_10  and  C0A_11 
REMARK    5  A    between atoms: C0A_11  and  C0B_12 
REMARK       I    between atoms: C0B_12  and  N0C_13 
REMARK    6  A    between atoms: C0E_15  and  C0F_16 
REMARK    7  A    between atoms: C0F_16  and  C0G_17 
REMARK    8  A    between atoms: C0N_23  and  C0O_24 
REMARK    9  A    between atoms: C0O_24  and  N0P_25 
ROOT
ATOM      1  C02 MOL     1      -7.187   5.606  12.676  1.00  0.00    -0.044 C 
ATOM      2  C03 MOL     1      -8.055   6.122  11.704  1.00  0.00     0.129 C 
ATOM      3  C08 MOL     1      -8.691   5.286  10.701  1.00  0.00    -0.316 C 
ATOM      4  C09 MOL     1      -8.538   3.916  10.802  1.00  0.00     0.109 C 
ATOM      5  C0E MOL     1      -7.654   3.353  11.677  1.00  0.00    -0.064 C 
ATOM      6  C0N MOL     1      -7.064   4.168  12.672  1.00  0.00    -0.120 C 
ENDROOT
BRANCH   5   7
ATOM      7  C0F MOL     1      -7.452   1.846  11.651  1.00  0.00     0.047 C 
BRANCH   7   8
ATOM      8  C0G MOL     1      -8.412   0.952  12.388  1.00  0.00     0.171 C 
ATOM      9  C0M MOL     1      -9.012  -0.160  11.761  1.00  0.00    -0.195 C 
ATOM     10  C0K MOL     1      -9.930  -0.985  12.461  1.00  0.00    -0.062 C 
ATOM     11  C0J MOL     1     -10.414  -0.639  13.726  1.00  0.00    -0.135 C 
ATOM     12  C0I MOL     1      -9.813   0.512  14.320  1.00  0.00    -0.071 C 
ATOM     13  C0H MOL     1      -8.827   1.211  13.657  1.00  0.00    -0.152 C 
ENDBRANCH   7   8
ENDBRANCH   5   7
BRANCH   6  14
ATOM     14  C0O MOL     1      -6.107   3.561  13.749  1.00  0.00     0.092 C 
BRANCH  14  15
ATOM     15  N0P MOL     1      -4.693   3.310  13.324  1.00  0.00    -0.153 N 
ATOM     16  H0Q MOL     1      -4.661   2.995  12.369  1.00  0.00     0.257 HD
ATOM     17  H0R MOL     1      -4.219   4.207  13.295  1.00  0.00     0.244 HD
ATOM     18  H0S MOL     1      -4.193   2.629  13.880  1.00  0.00     0.246 HD
ENDBRANCH  14  15
ENDBRANCH   6  14
BRANCH   4  19
ATOM     19  C0A MOL     1      -9.468   3.067   9.905  1.00  0.00    -0.219 C 
BRANCH  19  20
ATOM     20  C0B MOL     1     -10.990   3.161  10.250  1.00  0.00     0.819 C 
ATOM     21  N0C MOL     1     -11.394   2.548  11.321  1.00  0.00    -0.993 N 
ATOM     22  H13 MOL     1     -10.671   2.094  11.874  1.00  0.00     0.395 HD
ATOM     23  H14 MOL     1     -12.371   2.505  11.546  1.00  0.00     0.440 HD
ATOM     24  O0D MOL     1     -11.736   3.855   9.584  1.00  0.00    -0.614 OA
ENDBRANCH  19  20
ENDBRANCH   4  19
BRANCH   1  25
ATOM     25  C01 MOL     1      -6.462   6.485  13.718  1.00  0.00    -0.066 C 
ATOM     26  C00 MOL     1      -5.079   7.072  13.155  1.00  0.00    -0.126 C 
ENDBRANCH   1  25
BRANCH   2  27
ATOM     27  C04 MOL     1      -8.351   7.590  11.499  1.00  0.00    -0.266 C 
BRANCH  27  28
ATOM     28  C05 MOL     1      -9.428   8.161  12.387  1.00  0.00     0.870 C 
ATOM     29  O06 MOL     1      -9.216   8.880  13.344  1.00  0.00    -0.820 OA
ATOM     30  O07 MOL     1     -10.643   7.936  12.063  1.00  0.00    -0.676 OA
ENDBRANCH  27  28
ENDBRANCH   2  27
TORSDOF 9
ENDMDL
MODEL 12
REMARK VINA RESULT:      -5.0     17.657     20.466
REMARK  9 active torsions:
REMARK  status: ('A' for Active; 'I' for Inactive)
REMARK    1  A    between atoms: C01_2  and  C02_3 
REMARK    2  A    between atoms: C03_4  and  C04_5 
REMARK    3  A    between atoms: C04_5  and  C05_6 
REMARK    4  A    between atoms: C09_10  and  C0A_11 
REMARK    5  A    between atoms: C0A_11  and  C0B_12 
REMARK       I    between atoms: C0B_12  and  N0C_13 
REMARK    6  A    between atoms: C0E_15  and  C0F_16 
REMARK    7  A    between atoms: C0F_16  and  C0G_17 
REMARK    8  A    between atoms: C0N_23  and  C0O_24 
REMARK    9  A    between atoms: C0O_24  and  N0P_25 
ROOT
ATOM      1  C02 MOL     1      -4.369   8.776 -22.534  1.00  0.00    -0.044 C 
ATOM      2  C03 MOL     1      -5.241   7.733 -22.192  1.00  0.00     0.129 C 
ATOM      3  C08 MOL     1      -6.514   7.526 -22.860  1.00  0.00    -0.316 C 
ATOM      4  C09 MOL     1      -6.804   8.306 -23.964  1.00  0.00     0.109 C 
ATOM      5  C0E MOL     1      -6.037   9.381 -24.308  1.00  0.00    -0.064 C 
ATOM      6  C0N MOL     1      -4.783   9.556 -23.675  1.00  0.00    -0.120 C 
ENDROOT
BRANCH   5   7
ATOM      7  C0F MOL     1      -6.481  10.263 -25.464  1.00  0.00     0.047 C 
BRANCH   7   8
ATOM      8  C0G MOL     1      -7.458  11.380 -25.216  1.00  0.00     0.171 C 
ATOM      9  C0M MOL     1      -8.823  11.251 -25.545  1.00  0.00    -0.195 C 
ATOM     10  C0K MOL     1      -9.732  12.318 -25.323  1.00  0.00    -0.062 C 
ATOM     11  C0J MOL     1      -9.294  13.590 -24.942  1.00  0.00    -0.135 C 
ATOM     12  C0I MOL     1      -7.901  13.698 -24.650  1.00  0.00    -0.071 C 
ATOM     13  C0H MOL     1      -7.074  12.599 -24.752  1.00  0.00    -0.152 C 
ENDBRANCH   7   8
ENDBRANCH   5   7
BRANCH   6  14
ATOM     14  C0O MOL     1      -3.828  10.723 -24.086  1.00  0.00     0.092 C 
BRANCH  14  15
ATOM     15  N0P MOL     1      -3.913  11.978 -23.272  1.00  0.00    -0.153 N 
ATOM     16  H0Q MOL     1      -3.014  12.207 -22.880  1.00  0.00     0.257 HD
ATOM     17  H0R MOL     1      -4.094  12.745 -23.913  1.00  0.00     0.244 HD
ATOM     18  H0S MOL     1      -4.574  11.950 -22.509  1.00  0.00     0.246 HD
ENDBRANCH  14  15
ENDBRANCH   6  14
BRANCH   4  19
ATOM     19  C0A MOL     1      -8.015   7.849 -24.810  1.00  0.00    -0.219 C 
BRANCH  19  20
ATOM     20  C0B MOL     1      -7.663   6.955 -26.043  1.00  0.00     0.819 C 
ATOM     21  N0C MOL     1      -8.654   6.474 -26.729  1.00  0.00    -0.993 N 
ATOM     22  H13 MOL     1      -9.583   6.762 -26.432  1.00  0.00     0.395 HD
ATOM     23  H14 MOL     1      -8.490   5.827 -27.478  1.00  0.00     0.440 HD
ATOM     24  O0D MOL     1      -6.505   6.796 -26.385  1.00  0.00    -0.614 OA
ENDBRANCH  19  20
ENDBRANCH   4  19
BRANCH   1  25
ATOM     25  C01 MOL     1      -3.036   9.042 -21.801  1.00  0.00    -0.066 C 
ATOM     26  C00 MOL     1      -1.816   8.232 -22.455  1.00  0.00    -0.126 C 
ENDBRANCH   1  25
BRANCH   2  27
ATOM     27  C04 MOL     1      -5.037   6.778 -21.037  1.00  0.00    -0.266 C 
BRANCH  27  28
ATOM     28  C05 MOL     1      -5.480   7.292 -19.690  1.00  0.00     0.870 C 
ATOM     29  O06 MOL     1      -5.964   8.391 -19.502  1.00  0.00    -0.820 OA
ATOM     30  O07 MOL     1      -5.412   6.489 -18.699  1.00  0.00    -0.676 OA
ENDBRANCH  27  28
ENDBRANCH   2  27
TORSDOF 9
ENDMDL
MODEL 13
REMARK VINA RESULT:      -5.0      4.215      5.928
REMARK  9 active torsions:
REMARK  status: ('A' for Active; 'I' for Inactive)
REMARK    1  A    between atoms: C01_2  and  C02_3 
REMARK    2  A    between atoms: C03_4  and  C04_5 
REMARK    3  A    between atoms: C04_5  and  C05_6 
REMARK    4  A    between atoms: C09_10  and  C0A_11 
REMARK    5  A    between atoms: C0A_11  and  C0B_12 
REMARK       I    between atoms: C0B_12  and  N0C_13 
REMARK    6  A    between atoms: C0E_15  and  C0F_16 
REMARK    7  A    between atoms: C0F_16  and  C0G_17 
REMARK    8  A    between atoms: C0N_23  and  C0O_24 
REMARK    9  A    between atoms: C0O_24  and  N0P_25 
ROOT
ATOM      1  C02 MOL     1       3.713  10.571  -2.384  1.00  0.00    -0.044 C 
ATOM      2  C03 MOL     1       3.058  10.981  -3.553  1.00  0.00     0.129 C 
ATOM      3  C08 MOL     1       1.610  11.050  -3.655  1.00  0.00    -0.316 C 
ATOM      4  C09 MOL     1       0.865  10.835  -2.511  1.00  0.00     0.109 C 
ATOM      5  C0E MOL     1       1.431  10.366  -1.361  1.00  0.00    -0.064 C 
ATOM      6  C0N MOL     1       2.842  10.333  -1.258  1.00  0.00    -0.120 C 
ENDROOT
BRANCH   5   7
ATOM      7  C0F MOL     1       0.533  10.040  -0.178  1.00  0.00     0.047 C 
BRANCH   7   8
ATOM      8  C0G MOL     1       0.307  11.072   0.893  1.00  0.00     0.171 C 
ATOM      9  C0M MOL     1      -0.155  10.713   2.176  1.00  0.00    -0.195 C 
ATOM     10  C0K MOL     1      -0.381  11.698   3.172  1.00  0.00    -0.062 C 
ATOM     11  C0J MOL     1      -0.332  13.064   2.881  1.00  0.00    -0.135 C 
ATOM     12  C0I MOL     1       0.105  13.396   1.563  1.00  0.00    -0.071 C 
ATOM     13  C0H MOL     1       0.443  12.406   0.665  1.00  0.00    -0.152 C 
ENDBRANCH   7   8
ENDBRANCH   5   7
BRANCH   6  14
ATOM     14  C0O MOL     1       3.544   9.880   0.064  1.00  0.00     0.092 C 
BRANCH  14  15
ATOM     15  N0P MOL     1       3.907  10.960   1.035  1.00  0.00    -0.153 N 
ATOM     16  H0Q MOL     1       4.845  10.827   1.378  1.00  0.00     0.257 HD
ATOM     17  H0R MOL     1       3.966  11.831   0.515  1.00  0.00     0.244 HD
ATOM     18  H0S MOL     1       3.302  11.033   1.841  1.00  0.00     0.246 HD
ENDBRANCH  14  15
ENDBRANCH   6  14
BRANCH   4  19
ATOM     19  C0A MOL     1      -0.631  11.213  -2.602  1.00  0.00    -0.219 C 
BRANCH  19  20
ATOM     20  C0B MOL     1      -1.551  10.128  -3.250  1.00  0.00     0.819 C 
ATOM     21  N0C MOL     1      -2.635  10.541  -3.833  1.00  0.00    -0.993 N 
ATOM     22  H13 MOL     1      -2.770  11.549  -3.861  1.00  0.00     0.395 HD
ATOM     23  H14 MOL     1      -3.303   9.885  -4.193  1.00  0.00     0.440 HD
ATOM     24  O0D MOL     1      -1.211   8.959  -3.276  1.00  0.00    -0.614 OA
ENDBRANCH  19  20
ENDBRANCH   4  19
BRANCH   1  25
ATOM     25  C01 MOL     1       5.248  10.442  -2.273  1.00  0.00    -0.066 C 
ATOM     26  C00 MOL     1       5.773   9.017  -2.788  1.00  0.00    -0.126 C 
ENDBRANCH   1  25
BRANCH   2  27
ATOM     27  C04 MOL     1       3.741  11.288  -4.866  1.00  0.00    -0.266 C 
BRANCH  27  28
ATOM     28  C05 MOL     1       4.564  12.552  -4.884  1.00  0.00     0.870 C 
ATOM     29  O06 MOL     1       4.321  13.537  -4.215  1.00  0.00    -0.820 OA
ATOM     30  O07 MOL     1       5.629  12.554  -5.591  1.00  0.00    -0.676 OA
ENDBRANCH  27  28
ENDBRANCH   2  27
TORSDOF 9
ENDMDL
MODEL 14
REMARK VINA RESULT:      -4.9     25.906     28.161
REMARK  9 active torsions:
REMARK  status: ('A' for Active; 'I' for Inactive)
REMARK    1  A    between atoms: C01_2  and  C02_3 
REMARK    2  A    between atoms: C03_4  and  C04_5 
REMARK    3  A    between atoms: C04_5  and  C05_6 
REMARK    4  A    between atoms: C09_10  and  C0A_11 
REMARK    5  A    between atoms: C0A_11  and  C0B_12 
REMARK       I    between atoms: C0B_12  and  N0C_13 
REMARK    6  A    between atoms: C0E_15  and  C0F_16 
REMARK    7  A    between atoms: C0F_16  and  C0G_17 
REMARK    8  A    between atoms: C0N_23  and  C0O_24 
REMARK    9  A    between atoms: C0O_24  and  N0P_25 
ROOT
ATOM      1  C02 MOL     1     -27.614   5.210 -10.553  1.00  0.00    -0.044 C 
ATOM      2  C03 MOL     1     -28.080   4.726  -9.323  1.00  0.00     0.129 C 
ATOM      3  C08 MOL     1     -27.234   3.988  -8.402  1.00  0.00    -0.316 C 
ATOM      4  C09 MOL     1     -25.887   3.884  -8.694  1.00  0.00     0.109 C 
ATOM      5  C0E MOL     1     -25.381   4.270  -9.901  1.00  0.00    -0.064 C 
ATOM      6  C0N MOL     1     -26.202   5.017 -10.780  1.00  0.00    -0.120 C 
ENDROOT
BRANCH   5   7
ATOM      7  C0F MOL     1     -23.911   4.018 -10.198  1.00  0.00     0.047 C 
BRANCH   7   8
ATOM      8  C0G MOL     1     -23.498   2.753 -10.900  1.00  0.00     0.171 C 
ATOM      9  C0M MOL     1     -23.115   1.603 -10.179  1.00  0.00    -0.195 C 
ATOM     10  C0K MOL     1     -22.710   0.421 -10.853  1.00  0.00    -0.062 C 
ATOM     11  C0J MOL     1     -22.501   0.397 -12.234  1.00  0.00    -0.135 C 
ATOM     12  C0I MOL     1     -22.864   1.588 -12.932  1.00  0.00    -0.071 C 
ATOM     13  C0H MOL     1     -23.379   2.671 -12.252  1.00  0.00    -0.152 C 
ENDBRANCH   7   8
ENDBRANCH   5   7
BRANCH   6  14
ATOM     14  C0O MOL     1     -25.650   5.552 -12.141  1.00  0.00     0.092 C 
BRANCH  14  15
ATOM     15  N0P MOL     1     -25.069   6.932 -12.133  1.00  0.00    -0.153 N 
ATOM     16  H0Q MOL     1     -24.381   7.023 -11.403  1.00  0.00     0.257 HD
ATOM     17  H0R MOL     1     -24.526   7.039 -12.985  1.00  0.00     0.244 HD
ATOM     18  H0S MOL     1     -25.738   7.679 -12.007  1.00  0.00     0.246 HD
ENDBRANCH  14  15
ENDBRANCH   6  14
BRANCH   4  19
ATOM     19  C0A MOL     1     -24.989   3.361  -7.550  1.00  0.00    -0.219 C 
BRANCH  19  20
ATOM     20  C0B MOL     1     -25.462   2.022  -6.895  1.00  0.00     0.819 C 
ATOM     21  N0C MOL     1     -24.687   0.990  -7.031  1.00  0.00    -0.993 N 
ATOM     22  H13 MOL     1     -23.807   1.153  -7.515  1.00  0.00     0.395 HD
ATOM     23  H14 MOL     1     -24.978   0.087  -6.705  1.00  0.00     0.440 HD
ATOM     24  O0D MOL     1     -26.472   1.985  -6.216  1.00  0.00    -0.614 OA
ENDBRANCH  19  20
ENDBRANCH   4  19
BRANCH   1  25
ATOM     25  C01 MOL     1     -28.512   5.952 -11.568  1.00  0.00    -0.066 C 
ATOM     26  C00 MOL     1     -29.281   4.939 -12.546  1.00  0.00    -0.126 C 
ENDBRANCH   1  25
BRANCH   2  27
ATOM     27  C04 MOL     1     -29.515   4.801  -8.851  1.00  0.00    -0.266 C 
BRANCH  27  28
ATOM     28  C05 MOL     1     -29.789   5.832  -7.785  1.00  0.00     0.870 C 
ATOM     29  O06 MOL     1     -30.272   5.582  -6.698  1.00  0.00    -0.820 OA
ATOM     30  O07 MOL     1     -29.416   7.033  -8.013  1.00  0.00    -0.676 OA
ENDBRANCH  27  28
ENDBRANCH   2  27
TORSDOF 9
ENDMDL
MODEL 15
REMARK VINA RESULT:      -4.9     14.022     17.232
REMARK  9 active torsions:
REMARK  status: ('A' for Active; 'I' for Inactive)
REMARK    1  A    between atoms: C01_2  and  C02_3 
REMARK    2  A    between atoms: C03_4  and  C04_5 
REMARK    3  A    between atoms: C04_5  and  C05_6 
REMARK    4  A    between atoms: C09_10  and  C0A_11 
REMARK    5  A    between atoms: C0A_11  and  C0B_12 
REMARK       I    between atoms: C0B_12  and  N0C_13 
REMARK    6  A    between atoms: C0E_15  and  C0F_16 
REMARK    7  A    between atoms: C0F_16  and  C0G_17 
REMARK    8  A    between atoms: C0N_23  and  C0O_24 
REMARK    9  A    between atoms: C0O_24  and  N0P_25 
ROOT
ATOM      1  C02 MOL     1      -8.158  -6.467  -0.053  1.00  0.00    -0.044 C 
ATOM      2  C03 MOL     1      -9.471  -6.008  -0.225  1.00  0.00     0.129 C 
ATOM      3  C08 MOL     1      -9.785  -4.789  -0.950  1.00  0.00    -0.316 C 
ATOM      4  C09 MOL     1      -8.757  -4.140  -1.609  1.00  0.00     0.109 C 
ATOM      5  C0E MOL     1      -7.451  -4.490  -1.428  1.00  0.00    -0.064 C 
ATOM      6  C0N MOL     1      -7.155  -5.696  -0.748  1.00  0.00    -0.120 C 
ENDROOT
BRANCH   5   7
ATOM      7  C0F MOL     1      -6.366  -3.658  -2.093  1.00  0.00     0.047 C 
BRANCH   7   8
ATOM      8  C0G MOL     1      -5.784  -4.103  -3.407  1.00  0.00     0.171 C 
ATOM      9  C0M MOL     1      -4.566  -3.580  -3.887  1.00  0.00    -0.195 C 
ATOM     10  C0K MOL     1      -4.035  -3.995  -5.136  1.00  0.00    -0.062 C 
ATOM     11  C0J MOL     1      -4.770  -4.791  -6.019  1.00  0.00    -0.135 C 
ATOM     12  C0I MOL     1      -6.016  -5.276  -5.518  1.00  0.00    -0.071 C 
ATOM     13  C0H MOL     1      -6.434  -4.955  -4.244  1.00  0.00    -0.152 C 
ENDBRANCH   7   8
ENDBRANCH   5   7
BRANCH   6  14
ATOM     14  C0O MOL     1      -5.680  -6.187  -0.582  1.00  0.00     0.092 C 
BRANCH  14  15
ATOM     15  N0P MOL     1      -5.182  -7.172  -1.594  1.00  0.00    -0.153 N 
ATOM     16  H0Q MOL     1      -4.178  -7.130  -1.665  1.00  0.00     0.257 HD
ATOM     17  H0R MOL     1      -5.355  -8.102  -1.226  1.00  0.00     0.244 HD
ATOM     18  H0S MOL     1      -5.552  -7.053  -2.527  1.00  0.00     0.246 HD
ENDBRANCH  14  15
ENDBRANCH   6  14
BRANCH   4  19
ATOM     19  C0A MOL     1      -9.187  -3.035  -2.602  1.00  0.00    -0.219 C 
BRANCH  19  20
ATOM     20  C0B MOL     1     -10.087  -3.521  -3.785  1.00  0.00     0.819 C 
ATOM     21  N0C MOL     1     -11.124  -2.797  -4.076  1.00  0.00    -0.993 N 
ATOM     22  H13 MOL     1     -11.238  -1.943  -3.536  1.00  0.00     0.395 HD
ATOM     23  H14 MOL     1     -11.782  -3.103  -4.769  1.00  0.00     0.440 HD
ATOM     24  O0D MOL     1      -9.768  -4.488  -4.452  1.00  0.00    -0.614 OA
ENDBRANCH  19  20
ENDBRANCH   4  19
BRANCH   1  25
ATOM     25  C01 MOL     1      -7.801  -7.731   0.758  1.00  0.00    -0.066 C 
ATOM     26  C00 MOL     1      -7.589  -7.410   2.315  1.00  0.00    -0.126 C 
ENDBRANCH   1  25
BRANCH   2  27
ATOM     27  C04 MOL     1     -10.696  -6.635   0.400  1.00  0.00    -0.266 C 
BRANCH  27  28
ATOM     28  C05 MOL     1     -11.252  -5.908   1.598  1.00  0.00     0.870 C 
ATOM     29  O06 MOL     1     -10.712  -5.867   2.687  1.00  0.00    -0.820 OA
ATOM     30  O07 MOL     1     -12.320  -5.226   1.433  1.00  0.00    -0.676 OA
ENDBRANCH  27  28
ENDBRANCH   2  27
TORSDOF 9
ENDMDL
MODEL 16
REMARK VINA RESULT:      -4.9      5.997      8.620
REMARK  9 active torsions:
REMARK  status: ('A' for Active; 'I' for Inactive)
REMARK    1  A    between atoms: C01_2  and  C02_3 
REMARK    2  A    between atoms: C03_4  and  C04_5 
REMARK    3  A    between atoms: C04_5  and  C05_6 
REMARK    4  A    between atoms: C09_10  and  C0A_11 
REMARK    5  A    between atoms: C0A_11  and  C0B_12 
REMARK       I    between atoms: C0B_12  and  N0C_13 
REMARK    6  A    between atoms: C0E_15  and  C0F_16 
REMARK    7  A    between atoms: C0F_16  and  C0G_17 
REMARK    8  A    between atoms: C0N_23  and  C0O_24 
REMARK    9  A    between atoms: C0O_24  and  N0P_25 
ROOT
ATOM      1  C02 MOL     1       3.981   9.910   2.092  1.00  0.00    -0.044 C 
ATOM      2  C03 MOL     1       3.174  10.198   3.202  1.00  0.00     0.129 C 
ATOM      3  C08 MOL     1       1.937  10.951   3.095  1.00  0.00    -0.316 C 
ATOM      4  C09 MOL     1       1.477  11.272   1.831  1.00  0.00     0.109 C 
ATOM      5  C0E MOL     1       2.243  11.085   0.717  1.00  0.00    -0.064 C 
ATOM      6  C0N MOL     1       3.430  10.322   0.824  1.00  0.00    -0.120 C 
ENDROOT
BRANCH   5   7
ATOM      7  C0F MOL     1       1.719  11.570  -0.626  1.00  0.00     0.047 C 
BRANCH   7   8
ATOM      8  C0G MOL     1       0.667  10.773  -1.347  1.00  0.00     0.171 C 
ATOM      9  C0M MOL     1      -0.404  11.402  -2.015  1.00  0.00    -0.195 C 
ATOM     10  C0K MOL     1      -1.401  10.639  -2.677  1.00  0.00    -0.062 C 
ATOM     11  C0J MOL     1      -1.469   9.249  -2.549  1.00  0.00    -0.135 C 
ATOM     12  C0I MOL     1      -0.389   8.644  -1.837  1.00  0.00    -0.071 C 
ATOM     13  C0H MOL     1       0.631   9.414  -1.321  1.00  0.00    -0.152 C 
ENDBRANCH   7   8
ENDBRANCH   5   7
BRANCH   6  14
ATOM     14  C0O MOL     1       4.304  10.009  -0.434  1.00  0.00     0.092 C 
BRANCH  14  15
ATOM     15  N0P MOL     1       4.111   8.666  -1.068  1.00  0.00    -0.153 N 
ATOM     16  H0Q MOL     1       3.134   8.424  -1.095  1.00  0.00     0.257 HD
ATOM     17  H0R MOL     1       4.362   8.752  -2.048  1.00  0.00     0.244 HD
ATOM     18  H0S MOL     1       4.595   7.904  -0.613  1.00  0.00     0.246 HD
ENDBRANCH  14  15
ENDBRANCH   6  14
BRANCH   4  19
ATOM     19  C0A MOL     1       0.026  11.800   1.758  1.00  0.00    -0.219 C 
BRANCH  19  20
ATOM     20  C0B MOL     1      -0.188  13.236   2.339  1.00  0.00     0.819 C 
ATOM     21  N0C MOL     1       0.784  14.084   2.196  1.00  0.00    -0.993 N 
ATOM     22  H13 MOL     1       1.591  13.753   1.672  1.00  0.00     0.395 HD
ATOM     23  H14 MOL     1       0.736  14.992   2.621  1.00  0.00     0.440 HD
ATOM     24  O0D MOL     1      -1.258  13.557   2.824  1.00  0.00    -0.614 OA
ENDBRANCH  19  20
ENDBRANCH   4  19
BRANCH   1  25
ATOM     25  C01 MOL     1       5.325   9.155   2.194  1.00  0.00    -0.066 C 
ATOM     26  C00 MOL     1       5.120   7.566   2.267  1.00  0.00    -0.126 C 
ENDBRANCH   1  25
BRANCH   2  27
ATOM     27  C04 MOL     1       3.527   9.874   4.636  1.00  0.00    -0.266 C 
BRANCH  27  28
ATOM     28  C05 MOL     1       2.565   8.954   5.344  1.00  0.00     0.870 C 
ATOM     29  O06 MOL     1       2.036   9.205   6.409  1.00  0.00    -0.820 OA
ATOM     30  O07 MOL     1       2.227   7.877   4.746  1.00  0.00    -0.676 OA
ENDBRANCH  27  28
ENDBRANCH   2  27
TORSDOF 9
ENDMDL
MODEL 17
REMARK VINA RESULT:      -4.8     13.140     16.857
REMARK  9 active torsions:
REMARK  status: ('A' for Active; 'I' for Inactive)
REMARK    1  A    between atoms: C01_2  and  C02_3 
REMARK    2  A    between atoms: C03_4  and  C04_5 
REMARK    3  A    between atoms: C04_5  and  C05_6 
REMARK    4  A    between atoms: C09_10  and  C0A_11 
REMARK    5  A    between atoms: C0A_11  and  C0B_12 
REMARK       I    between atoms: C0B_12  and  N0C_13 
REMARK    6  A    between atoms: C0E_15  and  C0F_16 
REMARK    7  A    between atoms: C0F_16  and  C0G_17 
REMARK    8  A    between atoms: C0N_23  and  C0O_24 
REMARK    9  A    between atoms: C0O_24  and  N0P_25 
ROOT
ATOM      1  C02 MOL     1      -2.696   8.524 -21.947  1.00  0.00    -0.044 C 
ATOM      2  C03 MOL     1      -1.574   8.628 -22.781  1.00  0.00     0.129 C 
ATOM      3  C08 MOL     1      -0.367   7.848 -22.568  1.00  0.00    -0.316 C 
ATOM      4  C09 MOL     1      -0.385   6.872 -21.590  1.00  0.00     0.109 C 
ATOM      5  C0E MOL     1      -1.414   6.764 -20.700  1.00  0.00    -0.064 C 
ATOM      6  C0N MOL     1      -2.599   7.503 -20.933  1.00  0.00    -0.120 C 
ENDROOT
BRANCH   5   7
ATOM      7  C0F MOL     1      -1.313   5.743 -19.578  1.00  0.00     0.047 C 
BRANCH   7   8
ATOM      8  C0G MOL     1      -0.491   6.056 -18.357  1.00  0.00     0.171 C 
ATOM      9  C0M MOL     1      -0.285   7.383 -17.929  1.00  0.00    -0.195 C 
ATOM     10  C0K MOL     1       0.508   7.667 -16.786  1.00  0.00    -0.062 C 
ATOM     11  C0J MOL     1       1.257   6.676 -16.147  1.00  0.00    -0.135 C 
ATOM     12  C0I MOL     1       1.055   5.346 -16.626  1.00  0.00    -0.071 C 
ATOM     13  C0H MOL     1       0.172   5.098 -17.656  1.00  0.00    -0.152 C 
ENDBRANCH   7   8
ENDBRANCH   5   7
BRANCH   6  14
ATOM     14  C0O MOL     1      -3.838   7.357 -19.990  1.00  0.00     0.092 C 
BRANCH  14  15
ATOM     15  N0P MOL     1      -4.837   6.302 -20.353  1.00  0.00    -0.153 N 
ATOM     16  H0Q MOL     1      -5.344   6.000 -19.537  1.00  0.00     0.257 HD
ATOM     17  H0R MOL     1      -5.551   6.741 -20.926  1.00  0.00     0.244 HD
ATOM     18  H0S MOL     1      -4.450   5.476 -20.787  1.00  0.00     0.246 HD
ENDBRANCH  14  15
ENDBRANCH   6  14
BRANCH   4  19
ATOM     19  C0A MOL     1       0.801   5.880 -21.607  1.00  0.00    -0.219 C 
BRANCH  19  20
ATOM     20  C0B MOL     1       2.192   6.503 -21.259  1.00  0.00     0.819 C 
ATOM     21  N0C MOL     1       3.073   6.554 -22.211  1.00  0.00    -0.993 N 
ATOM     22  H13 MOL     1       2.765   6.224 -23.122  1.00  0.00     0.395 HD
ATOM     23  H14 MOL     1       4.008   6.866 -22.024  1.00  0.00     0.440 HD
ATOM     24  O0D MOL     1       2.396   6.996 -20.164  1.00  0.00    -0.614 OA
ENDBRANCH  19  20
ENDBRANCH   4  19
BRANCH   1  25
ATOM     25  C01 MOL     1      -3.968   9.381 -22.127  1.00  0.00    -0.066 C 
ATOM     26  C00 MOL     1      -4.978   8.744 -23.198  1.00  0.00    -0.126 C 
ENDBRANCH   1  25
BRANCH   2  27
ATOM     27  C04 MOL     1      -1.425   9.619 -23.913  1.00  0.00    -0.266 C 
BRANCH  27  28
ATOM     28  C05 MOL     1      -0.648  10.867 -23.578  1.00  0.00     0.870 C 
ATOM     29  O06 MOL     1       0.325  11.255 -24.196  1.00  0.00    -0.820 OA
ATOM     30  O07 MOL     1      -1.089  11.603 -22.631  1.00  0.00    -0.676 OA
ENDBRANCH  27  28
ENDBRANCH   2  27
TORSDOF 9
ENDMDL
MODEL 18
REMARK VINA RESULT:      -4.8      4.498      7.650
REMARK  9 active torsions:
REMARK  status: ('A' for Active; 'I' for Inactive)
REMARK    1  A    between atoms: C01_2  and  C02_3 
REMARK    2  A    between atoms: C03_4  and  C04_5 
REMARK    3  A    between atoms: C04_5  and  C05_6 
REMARK    4  A    between atoms: C09_10  and  C0A_11 
REMARK    5  A    between atoms: C0A_11  and  C0B_12 
REMARK       I    between atoms: C0B_12  and  N0C_13 
REMARK    6  A    between atoms: C0E_15  and  C0F_16 
REMARK    7  A    between atoms: C0F_16  and  C0G_17 
REMARK    8  A    between atoms: C0N_23  and  C0O_24 
REMARK    9  A    between atoms: C0O_24  and  N0P_25 
ROOT
ATOM      1  C02 MOL     1       3.102  10.681   1.771  1.00  0.00    -0.044 C 
ATOM      2  C03 MOL     1       4.190  10.538   0.898  1.00  0.00     0.129 C 
ATOM      3  C08 MOL     1       4.100  10.838  -0.520  1.00  0.00    -0.316 C 
ATOM      4  C09 MOL     1       2.936  11.415  -0.991  1.00  0.00     0.109 C 
ATOM      5  C0E MOL     1       1.818  11.517  -0.215  1.00  0.00    -0.064 C 
ATOM      6  C0N MOL     1       1.922  11.255   1.172  1.00  0.00    -0.120 C 
ENDROOT
BRANCH   5   7
ATOM      7  C0F MOL     1       0.538  12.055  -0.836  1.00  0.00     0.047 C 
BRANCH   7   8
ATOM      8  C0G MOL     1      -0.316  11.152  -1.684  1.00  0.00     0.171 C 
ATOM      9  C0M MOL     1      -0.407   9.769  -1.426  1.00  0.00    -0.195 C 
ATOM     10  C0K MOL     1      -1.202   8.925  -2.244  1.00  0.00    -0.062 C 
ATOM     11  C0J MOL     1      -1.779   9.383  -3.432  1.00  0.00    -0.135 C 
ATOM     12  C0I MOL     1      -1.640  10.781  -3.683  1.00  0.00    -0.071 C 
ATOM     13  C0H MOL     1      -0.970  11.592  -2.792  1.00  0.00    -0.152 C 
ENDBRANCH   7   8
ENDBRANCH   5   7
BRANCH   6  14
ATOM     14  C0O MOL     1       0.693  11.433   2.121  1.00  0.00     0.092 C 
BRANCH  14  15
ATOM     15  N0P MOL     1      -0.283  10.298   2.176  1.00  0.00    -0.153 N 
ATOM     16  H0Q MOL     1      -0.928  10.348   1.404  1.00  0.00     0.257 HD
ATOM     17  H0R MOL     1       0.235   9.442   1.998  1.00  0.00     0.244 HD
ATOM     18  H0S MOL     1      -0.833  10.246   3.022  1.00  0.00     0.246 HD
ENDBRANCH  14  15
ENDBRANCH   6  14
BRANCH   4  19
ATOM     19  C0A MOL     1       3.001  11.985  -2.427  1.00  0.00    -0.219 C 
BRANCH  19  20
ATOM     20  C0B MOL     1       3.135  10.917  -3.560  1.00  0.00     0.819 C 
ATOM     21  N0C MOL     1       4.262  10.872  -4.203  1.00  0.00    -0.993 N 
ATOM     22  H13 MOL     1       4.985  11.511  -3.879  1.00  0.00     0.395 HD
ATOM     23  H14 MOL     1       4.375  10.265  -4.993  1.00  0.00     0.440 HD
ATOM     24  O0D MOL     1       2.245  10.110  -3.762  1.00  0.00    -0.614 OA
ENDBRANCH  19  20
ENDBRANCH   4  19
BRANCH   1  25
ATOM     25  C01 MOL     1       3.165  10.319   3.271  1.00  0.00    -0.066 C 
ATOM     26  C00 MOL     1       2.810   8.777   3.535  1.00  0.00    -0.126 C 
ENDBRANCH   1  25
BRANCH   2  27
ATOM     27  C04 MOL     1       5.535   9.960   1.278  1.00  0.00    -0.266 C 
BRANCH  27  28
ATOM     28  C05 MOL     1       5.780   8.545   0.820  1.00  0.00     0.870 C 
ATOM     29  O06 MOL     1       5.216   7.569   1.275  1.00  0.00    -0.820 OA
ATOM     30  O07 MOL     1       6.577   8.372  -0.164  1.00  0.00    -0.676 OA
ENDBRANCH  27  28
ENDBRANCH   2  27
TORSDOF 9
ENDMDL
MODEL 19
REMARK VINA RESULT:      -4.7      4.427      8.005
REMARK  9 active torsions:
REMARK  status: ('A' for Active; 'I' for Inactive)
REMARK    1  A    between atoms: C01_2  and  C02_3 
REMARK    2  A    between atoms: C03_4  and  C04_5 
REMARK    3  A    between atoms: C04_5  and  C05_6 
REMARK    4  A    between atoms: C09_10  and  C0A_11 
REMARK    5  A    between atoms: C0A_11  and  C0B_12 
REMARK       I    between atoms: C0B_12  and  N0C_13 
REMARK    6  A    between atoms: C0E_15  and  C0F_16 
REMARK    7  A    between atoms: C0F_16  and  C0G_17 
REMARK    8  A    between atoms: C0N_23  and  C0O_24 
REMARK    9  A    between atoms: C0O_24  and  N0P_25 
ROOT
ATOM      1  C02 MOL     1       2.148  10.783   1.790  1.00  0.00    -0.044 C 
ATOM      2  C03 MOL     1       0.764  10.931   1.630  1.00  0.00     0.129 C 
ATOM      3  C08 MOL     1       0.084  10.620   0.384  1.00  0.00    -0.316 C 
ATOM      4  C09 MOL     1       0.815  10.027  -0.628  1.00  0.00     0.109 C 
ATOM      5  C0E MOL     1       2.174   9.918  -0.565  1.00  0.00    -0.064 C 
ATOM      6  C0N MOL     1       2.825  10.192   0.662  1.00  0.00    -0.120 C 
ENDROOT
BRANCH   5   7
ATOM      7  C0F MOL     1       2.924   9.362  -1.765  1.00  0.00     0.047 C 
BRANCH   7   8
ATOM      8  C0G MOL     1       3.358  10.288  -2.868  1.00  0.00     0.171 C 
ATOM      9  C0M MOL     1       3.811  11.596  -2.596  1.00  0.00    -0.195 C 
ATOM     10  C0K MOL     1       4.200  12.467  -3.647  1.00  0.00    -0.062 C 
ATOM     11  C0J MOL     1       3.986  12.141  -4.989  1.00  0.00    -0.135 C 
ATOM     12  C0I MOL     1       3.493  10.824  -5.231  1.00  0.00    -0.071 C 
ATOM     13  C0H MOL     1       3.252   9.961  -4.183  1.00  0.00    -0.152 C 
ENDBRANCH   7   8
ENDBRANCH   5   7
BRANCH   6  14
ATOM     14  C0O MOL     1       4.371  10.007   0.813  1.00  0.00     0.092 C 
BRANCH  14  15
ATOM     15  N0P MOL     1       5.220  11.210   0.539  1.00  0.00    -0.153 N 
ATOM     16  H0Q MOL     1       4.705  12.056   0.719  1.00  0.00     0.257 HD
ATOM     17  H0R MOL     1       5.957  11.228   1.237  1.00  0.00     0.244 HD
ATOM     18  H0S MOL     1       5.581  11.275  -0.403  1.00  0.00     0.246 HD
ENDBRANCH  14  15
ENDBRANCH   6  14
BRANCH   4  19
ATOM     19  C0A MOL     1      -0.008   9.446  -1.801  1.00  0.00    -0.219 C 
BRANCH  19  20
ATOM     20  C0B MOL     1      -0.672  10.510  -2.735  1.00  0.00     0.819 C 
ATOM     21  N0C MOL     1      -1.969  10.549  -2.760  1.00  0.00    -0.993 N 
ATOM     22  H13 MOL     1      -2.447   9.911  -2.127  1.00  0.00     0.395 HD
ATOM     23  H14 MOL     1      -2.449  11.152  -3.402  1.00  0.00     0.440 HD
ATOM     24  O0D MOL     1       0.010  11.317  -3.341  1.00  0.00    -0.614 OA
ENDBRANCH  19  20
ENDBRANCH   4  19
BRANCH   1  25
ATOM     25  C01 MOL     1       2.896  11.157   3.089  1.00  0.00    -0.066 C 
ATOM     26  C00 MOL     1       2.835   9.981   4.179  1.00  0.00    -0.126 C 
ENDBRANCH   1  25
BRANCH   2  27
ATOM     27  C04 MOL     1      -0.169  11.526   2.660  1.00  0.00    -0.266 C 
BRANCH  27  28
ATOM     28  C05 MOL     1      -0.555  12.965   2.424  1.00  0.00     0.870 C 
ATOM     29  O06 MOL     1      -0.102  13.659   1.535  1.00  0.00    -0.820 OA
ATOM     30  O07 MOL     1      -1.476  13.458   3.160  1.00  0.00    -0.676 OA
ENDBRANCH  27  28
ENDBRANCH   2  27
TORSDOF 9
ENDMDL
MODEL 20
REMARK VINA RESULT:      -4.6     18.158     21.182
REMARK  9 active torsions:
REMARK  status: ('A' for Active; 'I' for Inactive)
REMARK    1  A    between atoms: C01_2  and  C02_3 
REMARK    2  A    between atoms: C03_4  and  C04_5 
REMARK    3  A    between atoms: C04_5  and  C05_6 
REMARK    4  A    between atoms: C09_10  and  C0A_11 
REMARK    5  A    between atoms: C0A_11  and  C0B_12 
REMARK       I    between atoms: C0B_12  and  N0C_13 
REMARK    6  A    between atoms: C0E_15  and  C0F_16 
REMARK    7  A    between atoms: C0F_16  and  C0G_17 
REMARK    8  A    between atoms: C0N_23  and  C0O_24 
REMARK    9  A    between atoms: C0O_24  and  N0P_25 
ROOT
ATOM      1  C02 MOL     1     -11.770   1.555  11.899  1.00  0.00    -0.044 C 
ATOM      2  C03 MOL     1     -11.879   2.433  10.812  1.00  0.00     0.129 C 
ATOM      3  C08 MOL     1     -10.738   3.146  10.265  1.00  0.00    -0.316 C 
ATOM      4  C09 MOL     1      -9.482   2.836  10.751  1.00  0.00     0.109 C 
ATOM      5  C0E MOL     1      -9.310   2.045  11.850  1.00  0.00    -0.064 C 
ATOM      6  C0N MOL     1     -10.420   1.328  12.356  1.00  0.00    -0.120 C 
ENDROOT
BRANCH   5   7
ATOM      7  C0F MOL     1      -7.906   1.841  12.398  1.00  0.00     0.047 C 
BRANCH   7   8
ATOM      8  C0G MOL     1      -7.364   2.791  13.431  1.00  0.00     0.171 C 
ATOM      9  C0M MOL     1      -7.851   2.793  14.755  1.00  0.00    -0.195 C 
ATOM     10  C0K MOL     1      -7.344   3.706  15.717  1.00  0.00    -0.062 C 
ATOM     11  C0J MOL     1      -6.484   4.748  15.360  1.00  0.00    -0.135 C 
ATOM     12  C0I MOL     1      -6.037   4.740  14.004  1.00  0.00    -0.071 C 
ATOM     13  C0H MOL     1      -6.452   3.754  13.134  1.00  0.00    -0.152 C 
ENDBRANCH   7   8
ENDBRANCH   5   7
BRANCH   6  14
ATOM     14  C0O MOL     1     -10.264   0.347  13.564  1.00  0.00     0.092 C 
BRANCH  14  15
ATOM     15  N0P MOL     1     -10.044  -1.097  13.231  1.00  0.00    -0.153 N 
ATOM     16  H0Q MOL     1      -9.961  -1.644  14.072  1.00  0.00     0.257 HD
ATOM     17  H0R MOL     1     -10.897  -1.445  12.804  1.00  0.00     0.244 HD
ATOM     18  H0S MOL     1      -9.226  -1.287  12.668  1.00  0.00     0.246 HD
ENDBRANCH  14  15
ENDBRANCH   6  14
BRANCH   4  19
ATOM     19  C0A MOL     1      -8.290   3.392   9.937  1.00  0.00    -0.219 C 
BRANCH  19  20
ATOM     20  C0B MOL     1      -7.924   2.576   8.655  1.00  0.00     0.819 C 
ATOM     21  N0C MOL     1      -7.430   1.389   8.829  1.00  0.00    -0.993 N 
ATOM     22  H13 MOL     1      -7.367   1.068   9.792  1.00  0.00     0.395 HD
ATOM     23  H14 MOL     1      -7.099   0.854   8.047  1.00  0.00     0.440 HD
ATOM     24  O0D MOL     1      -8.178   3.013   7.547  1.00  0.00    -0.614 OA
ENDBRANCH  19  20
ENDBRANCH   4  19
BRANCH   1  25
ATOM     25  C01 MOL     1     -12.979   0.827  12.526  1.00  0.00    -0.066 C 
ATOM     26  C00 MOL     1     -13.724   1.730  13.623  1.00  0.00    -0.126 C 
ENDBRANCH   1  25
BRANCH   2  27
ATOM     27  C04 MOL     1     -13.179   2.837  10.153  1.00  0.00    -0.266 C 
BRANCH  27  28
ATOM     28  C05 MOL     1     -13.485   4.314  10.185  1.00  0.00     0.870 C 
ATOM     29  O06 MOL     1     -13.490   4.990  11.195  1.00  0.00    -0.820 OA
ATOM     30  O07 MOL     1     -13.675   4.903   9.068  1.00  0.00    -0.676 OA
ENDBRANCH  27  28
ENDBRANCH   2  27
TORSDOF 9
ENDMDL
