REMARK  9 active torsions:
REMARK  status: ('A' for Active; 'I' for Inactive)
REMARK    1  A    between atoms: C01_2  and  C02_3 
REMARK    2  A    between atoms: C03_4  and  C04_5 
REMARK    3  A    between atoms: C04_5  and  C05_6 
REMARK    4  A    between atoms: C09_10  and  C0A_11 
REMARK    5  A    between atoms: C0A_11  and  C0B_12 
REMARK       I    between atoms: C0B_12  and  N0C_13 
REMARK    6  A    between atoms: C0E_15  and  C0F_16 
REMARK    7  A    between atoms: C0F_16  and  C0G_17 
REMARK    8  A    between atoms: C0N_23  and  C0O_24 
REMARK    9  A    between atoms: C0O_24  and  N0P_25 
ROOT
ATOM      1  C02 MOL     1      23.870  25.220  27.190  1.00  0.00    -0.044 C 
ATOM      2  C03 MOL     1      24.040  26.610  27.250  1.00  0.00     0.129 C 
ATOM      3  C08 MOL     1      24.790  27.350  26.250  1.00  0.00    -0.316 C 
ATOM      4  C09 MOL     1      25.230  26.670  25.130  1.00  0.00     0.109 C 
ATOM      5  C0E MOL     1      25.160  25.310  25.040  1.00  0.00    -0.064 C 
ATOM      6  C0N MOL     1      24.400  24.600  26.000  1.00  0.00    -0.120 C 
ENDROOT
BRANCH   5   7
ATOM      7  C0F MOL     1      25.770  24.620  23.830  1.00  0.00     0.047 C 
BRANCH   7   8
ATOM      8  C0G MOL     1      25.030  24.620  22.520  1.00  0.00     0.171 C 
ATOM      9  C0M MOL     1      23.640  24.850  22.460  1.00  0.00    -0.195 C 
ATOM     10  C0K MOL     1      22.950  24.830  21.220  1.00  0.00    -0.062 C 
ATOM     11  C0J MOL     1      23.570  24.410  20.040  1.00  0.00    -0.135 C 
ATOM     12  C0I MOL     1      24.970  24.150  20.140  1.00  0.00    -0.071 C 
ATOM     13  C0H MOL     1      25.630  24.310  21.340  1.00  0.00    -0.152 C 
ENDBRANCH   7   8
ENDBRANCH   5   7
BRANCH   6  14
ATOM     14  C0O MOL     1      24.220  23.050  25.900  1.00  0.00     0.092 C 
BRANCH  14  15
ATOM     15  N0P MOL     1      25.200  22.210  26.660  1.00  0.00    -0.153 N 
ATOM     16  H0Q MOL     1      25.110  22.370  27.650  1.00  0.00     0.257 HD
ATOM     17  H0R MOL     1      24.920  21.240  26.550  1.00  0.00     0.244 HD
ATOM     18  H0S MOL     1      26.170  22.360  26.420  1.00  0.00     0.246 HD
ENDBRANCH  14  15
ENDBRANCH   6  14
BRANCH   4  19
ATOM     19  C0A MOL     1      25.750  27.550  23.970  1.00  0.00    -0.219 C 
BRANCH  19  20
ATOM     20  C0B MOL     1      27.270  27.910  24.040  1.00  0.00     0.819 C 
ATOM     21  N0C MOL     1      27.850  28.250  22.930  1.00  0.00    -0.993 N 
ATOM     22  H13 MOL     1      27.250  28.300  22.110  1.00  0.00     0.395 HD
ATOM     23  H14 MOL     1      28.840  28.410  22.900  1.00  0.00     0.440 HD
ATOM     24  O0D MOL     1      27.850  27.950  25.110  1.00  0.00    -0.614 OA
ENDBRANCH  19  20
ENDBRANCH   4  19
BRANCH   1  25
ATOM     25  C01 MOL     1      23.120  24.410  28.270  1.00  0.00    -0.066 C 
ATOM     26  C00 MOL     1      21.550  24.300  27.960  1.00  0.00    -0.126 C 
ENDBRANCH   1  25
BRANCH   2  27
ATOM     27  C04 MOL     1      23.580  27.490  28.390  1.00  0.00    -0.266 C 
BRANCH  27  28
ATOM     28  C05 MOL     1      24.480  27.500  29.600  1.00  0.00     0.870 C 
ATOM     29  O06 MOL     1      24.210  28.050  30.650  1.00  0.00    -0.820 OA
ATOM     30  O07 MOL     1      25.560  26.820  29.540  1.00  0.00    -0.676 OA
ENDBRANCH  27  28
ENDBRANCH   2  27
TORSDOF 9
